
     RDKit          3D

 33 37  0  0  0  0  0  0  0  0999 V2000
  -58.0896   32.2143   10.9197 N   0  0  0  0  0  4  0  0  0  0  0  0
  -57.4963   31.1266   10.1695 C   0  0  0  0  0  0  0  0  0  0  0  0
  -56.7083   30.2689   11.1018 C   0  0  0  0  0  0  0  0  0  0  0  0
  -56.6087   30.6269   12.4376 C   0  0  0  0  0  0  0  0  0  0  0  0
  -55.8732   29.8251   13.2997 C   0  0  0  0  0  0  0  0  0  0  0  0
  -55.2418   28.6886   12.8664 C   0  0  0  0  0  0  0  0  0  0  0  0
  -55.3517   28.3494   11.5389 C   0  0  0  0  0  0  0  0  0  0  0  0
  -56.0860   29.1375   10.6473 C   0  0  0  0  0  0  0  0  0  0  0  0
  -54.4785   27.8909   13.8074 C   0  0  0  0  0  0  0  0  0  0  0  0
  -53.1556   27.6269   13.5675 N   0  0  0  0  0  0  0  0  0  0  0  0
  -52.4230   26.8933   14.4166 C   0  0  0  0  0  0  0  0  0  0  0  0
  -53.0395   26.4066   15.5473 C   0  0  0  0  0  0  0  0  0  0  0  0
  -52.2726   25.6515   16.4140 O   0  0  0  0  0  0  0  0  0  0  0  0
  -52.6343   25.3472   17.7264 C   0  0  0  0  0  0  0  0  0  0  0  0
  -51.6368   24.4557   18.4328 C   0  0  1  0  0  0  0  0  0  0  0  0
  -51.8923   24.3829   19.9096 C   0  0  0  0  0  0  0  0  0  0  0  0
  -52.8009   23.2917   20.3427 C   0  0  0  0  0  0  0  0  0  0  0  0
  -52.5239   22.0202   19.7045 N   0  0  0  0  0  4  0  0  0  0  0  0
  -52.7361   22.2119   18.2717 C   0  0  0  0  0  0  0  0  0  0  0  0
  -51.6057   23.0906   17.7821 C   0  0  0  0  0  0  0  0  0  0  0  0
  -54.3356   26.6675   15.7788 N   0  0  0  0  0  0  0  0  0  0  0  0
  -55.0922   27.4014   14.9419 C   0  0  0  0  0  0  0  0  0  0  0  0
  -56.4967   27.6865   15.2032 C   0  0  0  0  0  0  0  0  0  0  0  0
  -56.9653   28.3565   16.3113 C   0  0  0  0  0  0  0  0  0  0  0  0
  -58.3230   28.5574   16.4518 C   0  0  0  0  0  0  0  0  0  0  0  0
  -59.2534   28.1125   15.5191 C   0  0  0  0  0  0  0  0  0  0  0  0
  -58.7750   27.4432   14.4123 C   0  0  0  0  0  0  0  0  0  0  0  0
  -57.4230   27.2386   14.2651 C   0  0  0  0  0  0  0  0  0  0  0  0
  -60.6836   28.3271   15.6825 C   0  0  0  0  0  0  0  0  0  0  0  0
  -61.3306   29.0602   16.6524 C   0  0  0  0  0  0  0  0  0  0  0  0
  -62.6708   28.9898   16.4164 N   0  0  0  0  0  0  0  0  0  0  0  0
  -62.8858   28.2488   15.3475 N   0  0  0  0  0  0  0  0  0  0  0  0
  -61.6766   27.8258   14.8730 C   0  0  0  0  0  0  0  0  0  0  0  0
  1  2  1  0
  2  3  1  0
  3  4  2  0
  3  8  1  0
  4  5  1  0
  5  6  2  0
  6  7  1  0
  6  9  1  0
  7  8  2  0
  9 10  2  0
  9 22  1  0
 10 11  1  0
 11 12  2  0
 12 13  1  0
 12 21  1  0
 13 14  1  0
 15 14  1  6
 15 16  1  0
 15 20  1  0
 16 17  1  0
 17 18  1  0
 18 19  1  0
 19 20  1  0
 21 22  2  0
 22 23  1  0
 23 24  2  0
 23 28  1  0
 24 25  1  0
 25 26  2  0
 26 27  1  0
 26 29  1  0
 27 28  2  0
 29 30  2  0
 29 33  1  0
 30 31  1  0
 31 32  1  0
 32 33  2  0
M  CHG  2   1   1  18   1
M  END
$$$$
