
     RDKit          3D

 33 37  0  0  0  0  0  0  0  0999 V2000
  -59.5910   30.6676   20.1573 N   0  0  0  0  0  4  0  0  0  0  0  0
  -60.2448   29.4729   19.6643 C   0  0  0  0  0  0  0  0  0  0  0  0
  -59.4556   28.9253   18.5228 C   0  0  0  0  0  0  0  0  0  0  0  0
  -60.1048   28.5882   17.3450 C   0  0  0  0  0  0  0  0  0  0  0  0
  -59.3650   28.0782   16.2869 C   0  0  0  0  0  0  0  0  0  0  0  0
  -58.0092   27.8981   16.3745 C   0  0  0  0  0  0  0  0  0  0  0  0
  -57.3827   28.2380   17.5499 C   0  0  0  0  0  0  0  0  0  0  0  0
  -58.1019   28.7541   18.6323 C   0  0  0  0  0  0  0  0  0  0  0  0
  -57.2849   27.3533   15.2419 C   0  0  0  0  0  0  0  0  0  0  0  0
  -56.3409   28.1129   14.6022 N   0  0  0  0  0  0  0  0  0  0  0  0
  -55.6547   27.6392   13.5531 C   0  0  0  0  0  0  0  0  0  0  0  0
  -55.9252   26.3573   13.1300 C   0  0  0  0  0  0  0  0  0  0  0  0
  -55.2108   25.8816   12.0471 O   0  0  0  0  0  0  0  0  0  0  0  0
  -55.3306   24.5924   11.5279 C   0  0  0  0  0  0  0  0  0  0  0  0
  -54.6447   24.4174   10.1908 C   0  0  1  0  0  0  0  0  0  0  0  0
  -54.9262   23.0742    9.5841 C   0  0  0  0  0  0  0  0  0  0  0  0
  -56.1184   23.0146    8.7016 C   0  0  0  0  0  0  0  0  0  0  0  0
  -56.2179   24.1342    7.7866 N   0  0  0  0  0  4  0  0  0  0  0  0
  -56.3495   25.3376    8.6048 C   0  0  0  0  0  0  0  0  0  0  0  0
  -55.0065   25.5583    9.2662 C   0  0  0  0  0  0  0  0  0  0  0  0
  -56.8506   25.6163   13.7594 N   0  0  0  0  0  0  0  0  0  0  0  0
  -57.5525   26.0691   14.8148 C   0  0  0  0  0  0  0  0  0  0  0  0
  -58.5505   25.2566   15.4975 C   0  0  0  0  0  0  0  0  0  0  0  0
  -59.7950   24.9570   14.9896 C   0  0  0  0  0  0  0  0  0  0  0  0
  -60.6586   24.1836   15.7377 C   0  0  0  0  0  0  0  0  0  0  0  0
  -60.3314   23.6850   16.9938 C   0  0  0  0  0  0  0  0  0  0  0  0
  -59.0829   23.9895   17.4941 C   0  0  0  0  0  0  0  0  0  0  0  0
  -58.2164   24.7602   16.7547 C   0  0  0  0  0  0  0  0  0  0  0  0
  -61.2543   22.8743   17.7744 C   0  0  0  0  0  0  0  0  0  0  0  0
  -61.0661   22.3365   19.0283 C   0  0  0  0  0  0  0  0  0  0  0  0
  -62.1940   21.6538   19.3725 N   0  0  0  0  0  0  0  0  0  0  0  0
  -63.0719   21.7423   18.3931 N   0  0  0  0  0  0  0  0  0  0  0  0
  -62.5190   22.4903   17.3926 C   0  0  0  0  0  0  0  0  0  0  0  0
  1  2  1  0
  2  3  1  0
  3  4  2  0
  3  8  1  0
  4  5  1  0
  5  6  2  0
  6  7  1  0
  6  9  1  0
  7  8  2  0
  9 10  2  0
  9 22  1  0
 10 11  1  0
 11 12  2  0
 12 13  1  0
 12 21  1  0
 13 14  1  0
 15 14  1  1
 15 16  1  0
 15 20  1  0
 16 17  1  0
 17 18  1  0
 18 19  1  0
 19 20  1  0
 21 22  2  0
 22 23  1  0
 23 24  2  0
 23 28  1  0
 24 25  1  0
 25 26  2  0
 26 27  1  0
 26 29  1  0
 27 28  2  0
 29 30  2  0
 29 33  1  0
 30 31  1  0
 31 32  1  0
 32 33  2  0
M  CHG  2   1   1  18   1
M  END
$$$$
