
     RDKit          3D

 40 43  0  0  0  0  0  0  0  0999 V2000
   69.8687   56.5280   15.1280 C   0  0  0  0  0  0  0  0  0  0  0  0
   74.2968   59.7961   19.2596 C   0  0  1  0  0  0  0  0  0  0  0  0
   75.5573   60.5993   19.1163 C   0  0  0  0  0  0  0  0  0  0  0  0
   73.5931   60.5629   20.3730 C   0  0  2  0  0  0  0  0  0  0  0  0
   72.1797   60.9159   20.0378 C   0  0  0  0  0  0  0  0  0  0  0  0
   66.7179   51.8671   12.7053 C   0  0  0  0  0  0  0  0  0  0  0  0
   66.4912   52.9361   13.5843 C   0  0  0  0  0  0  0  0  0  0  0  0
   67.3242   54.0287   13.5811 C   0  0  0  0  0  0  0  0  0  0  0  0
   68.4084   54.1016   12.7112 C   0  0  0  0  0  0  0  0  0  0  0  0
   68.6347   53.0701   11.8548 C   0  0  0  0  0  0  0  0  0  0  0  0
   67.7850   51.9617   11.8617 C   0  0  0  0  0  0  0  0  0  0  0  0
   71.3727   54.7610   14.3896 C   0  0  0  0  0  0  0  0  0  0  0  0
   72.1997   55.1214   15.6114 C   0  0  2  0  0  0  0  0  0  0  0  0
   70.5844   57.8537   15.1822 C   0  0  2  0  0  0  0  0  0  0  0  0
   70.3242   58.5333   16.5136 C   0  0  2  0  0  0  0  0  0  0  0  0
   72.3249   59.0841   17.9639 C   0  0  0  0  0  0  0  0  0  0  0  0
   74.2783   61.9004   20.3400 C   0  0  1  0  0  0  0  0  0  0  0  0
   72.2717   62.3353   19.5271 C   0  0  0  0  0  0  0  0  0  0  0  0
   68.9541   59.0165   16.6401 C   0  0  0  0  0  0  0  0  0  0  0  0
   68.7205   59.4867   18.0532 C   0  0  0  0  0  0  0  0  0  0  0  0
   68.3828   58.6145   19.0581 C   0  0  0  0  0  0  0  0  0  0  0  0
   68.1698   59.0033   20.3462 C   0  0  0  0  0  0  0  0  0  0  0  0
   68.2962   60.3350   20.6633 C   0  0  0  0  0  0  0  0  0  0  0  0
   68.6326   61.2415   19.6898 C   0  0  0  0  0  0  0  0  0  0  0  0
   68.8496   60.8239   18.3680 C   0  0  0  0  0  0  0  0  0  0  0  0
   66.3874   49.4949   13.4079 C   0  0  0  0  0  0  0  0  0  0  0  0
   65.7714   50.7247   12.7885 C   0  0  2  0  0  0  0  0  0  0  0  0
   73.6389   54.7730   15.3833 C   0  0  0  0  0  0  0  0  0  0  0  0
   71.6996   54.5020   16.8790 C   0  0  0  0  0  0  0  0  0  0  0  0
   70.3088   55.6409   14.1469 N   0  0  0  0  0  0  0  0  0  0  0  0
   71.4068   59.3459   16.9191 N   0  0  0  0  0  0  0  0  0  0  0  0
   70.3796   55.3675   11.5617 O   0  0  0  0  0  0  0  0  0  0  0  0
   68.5581   56.6977   12.4254 O   0  0  0  0  0  0  0  0  0  0  0  0
   70.3132   58.6505   14.0960 O   0  0  0  0  0  0  0  0  0  0  0  0
   72.0509   58.1906   18.7578 O   0  0  0  0  0  0  0  0  0  0  0  0
   73.5068   59.7969   18.1091 O   0  0  0  0  0  0  0  0  0  0  0  0
   75.0564   61.9190   19.2005 O   0  0  0  0  0  0  0  0  0  0  0  0
   73.3068   62.8721   20.2490 O   0  0  0  0  0  0  0  0  0  0  0  0
   65.4597   50.3688   11.4529 O   0  0  0  0  0  0  0  0  0  0  0  0
   69.4196   55.5064   12.7370 S   0  0  1  0  0  6  0  0  0  0  0  0
  1 14  1  0
 30  1  1  0
  2  3  1  0
  2  4  1  0
  2 36  1  6
  3 37  1  0
  4  5  1  6
  4 17  1  0
  5 18  1  0
  7  6  2  0
 11  6  1  0
  6 27  1  0
  8  7  1  0
  9  8  2  0
  9 10  1  0
 40  9  1  0
 10 11  2  0
 12 13  1  0
 30 12  1  0
 13 28  1  6
 13 29  1  0
 14 15  1  0
 14 34  1  6
 15 19  1  6
 15 31  1  0
 31 16  1  0
 16 35  2  0
 16 36  1  0
 17 37  1  6
 17 38  1  0
 38 18  1  0
 19 20  1  0
 20 21  2  0
 20 25  1  0
 21 22  1  0
 22 23  2  0
 24 23  1  0
 25 24  2  0
 27 26  1  6
 27 39  1  0
 40 30  1  1
 40 32  2  0
 40 33  2  0
M  END
$$$$
