
     RDKit          3D

 40 43  0  0  0  0  0  0  0  0999 V2000
   70.6616   56.5131   14.4091 C   0  0  0  0  0  0  0  0  0  0  0  0
   74.2079   59.0023   18.7085 C   0  0  1  0  0  0  0  0  0  0  0  0
   75.6580   59.2706   18.4260 C   0  0  0  0  0  0  0  0  0  0  0  0
   73.9916   59.8680   19.9442 C   0  0  2  0  0  0  0  0  0  0  0  0
   72.8028   60.7668   19.8284 C   0  0  0  0  0  0  0  0  0  0  0  0
   67.3907   52.5231   12.8246 C   0  0  0  0  0  0  0  0  0  0  0  0
   67.2829   53.9210   12.8577 C   0  0  0  0  0  0  0  0  0  0  0  0
   67.8833   54.6421   13.8614 C   0  0  0  0  0  0  0  0  0  0  0  0
   68.6089   54.0071   14.8654 C   0  0  0  0  0  0  0  0  0  0  0  0
   68.7195   52.6522   14.8401 C   0  0  0  0  0  0  0  0  0  0  0  0
   68.1075   51.9238   13.8177 C   0  0  0  0  0  0  0  0  0  0  0  0
   71.8906   55.7470   16.3668 C   0  0  0  0  0  0  0  0  0  0  0  0
   73.1660   55.4358   15.6031 C   0  0  2  0  0  0  0  0  0  0  0  0
   69.9835   57.8516   14.5541 C   0  0  2  0  0  0  0  0  0  0  0  0
   70.1472   58.3688   15.9711 C   0  0  2  0  0  0  0  0  0  0  0  0
   72.0468   58.9935   17.5238 C   0  0  0  0  0  0  0  0  0  0  0  0
   75.1389   60.8367   19.8765 C   0  0  1  0  0  0  0  0  0  0  0  0
   73.3875   62.0849   19.3756 C   0  0  0  0  0  0  0  0  0  0  0  0
   69.0375   59.2159   16.3923 C   0  0  0  0  0  0  0  0  0  0  0  0
   68.8322   59.0653   17.8781 C   0  0  0  0  0  0  0  0  0  0  0  0
   68.6486   57.8360   18.4610 C   0  0  0  0  0  0  0  0  0  0  0  0
   68.4659   57.6625   19.7997 C   0  0  0  0  0  0  0  0  0  0  0  0
   68.4625   58.7697   20.6146 C   0  0  0  0  0  0  0  0  0  0  0  0
   68.6427   60.0179   20.0741 C   0  0  0  0  0  0  0  0  0  0  0  0
   68.8308   60.1787   18.6930 C   0  0  0  0  0  0  0  0  0  0  0  0
   67.4770   50.6496   11.1776 C   0  0  0  0  0  0  0  0  0  0  0  0
   66.6994   51.8285   11.7077 C   0  0  2  0  0  0  0  0  0  0  0  0
   72.9348   54.3038   14.6491 C   0  0  0  0  0  0  0  0  0  0  0  0
   74.3407   55.1523   16.4862 C   0  0  0  0  0  0  0  0  0  0  0  0
   70.7382   55.7432   15.5687 N   0  0  0  0  0  0  0  0  0  0  0  0
   71.4794   58.7481   16.2507 N   0  0  0  0  0  0  0  0  0  0  0  0
   68.3313   56.0078   16.5174 O   0  0  0  0  0  0  0  0  0  0  0  0
   69.5608   54.0823   17.3010 O   0  0  0  0  0  0  0  0  0  0  0  0
   68.6795   57.8380   14.1210 O   0  0  0  0  0  0  0  0  0  0  0  0
   71.3403   58.8165   18.5104 O   0  0  0  0  0  0  0  0  0  0  0  0
   73.3585   59.4182   17.6823 O   0  0  0  0  0  0  0  0  0  0  0  0
   75.7289   60.6665   18.6408 O   0  0  0  0  0  0  0  0  0  0  0  0
   74.6240   62.1106   19.9683 O   0  0  0  0  0  0  0  0  0  0  0  0
   66.6343   52.7586   10.6408 O   0  0  0  0  0  0  0  0  0  0  0  0
   69.3581   54.9622   16.0996 S   0  0  1  0  0  6  0  0  0  0  0  0
  1 14  1  0
 30  1  1  0
  2  3  1  0
  2  4  1  0
  2 36  1  6
  3 37  1  0
  4  5  1  6
  4 17  1  0
  5 18  1  0
  7  6  2  0
 11  6  1  0
  6 27  1  0
  8  7  1  0
  9  8  2  0
  9 10  1  0
 40  9  1  0
 10 11  2  0
 12 13  1  0
 30 12  1  0
 13 28  1  1
 13 29  1  0
 14 15  1  0
 14 34  1  1
 15 19  1  6
 15 31  1  0
 31 16  1  0
 16 35  2  0
 16 36  1  0
 17 37  1  6
 17 38  1  0
 38 18  1  0
 19 20  1  0
 20 21  2  0
 20 25  1  0
 21 22  1  0
 22 23  2  0
 24 23  1  0
 25 24  2  0
 27 26  1  6
 27 39  1  0
 40 30  1  6
 40 32  2  0
 40 33  2  0
M  END
$$$$
