
     RDKit          3D

 40 43  0  0  0  0  0  0  0  0999 V2000
   71.3275   56.2139   16.2249 C   0  0  0  0  0  0  0  0  0  0  0  0
   74.8843   60.3249   18.6765 C   0  0  1  0  0  0  0  0  0  0  0  0
   75.7130   61.4643   18.1573 C   0  0  0  0  0  0  0  0  0  0  0  0
   74.6249   60.7869   20.1056 C   0  0  2  0  0  0  0  0  0  0  0  0
   73.1794   60.7377   20.4833 C   0  0  0  0  0  0  0  0  0  0  0  0
   67.6164   51.9520   12.9691 C   0  0  0  0  0  0  0  0  0  0  0  0
   67.0152   53.2155   12.8751 C   0  0  0  0  0  0  0  0  0  0  0  0
   67.4133   54.2393   13.7004 C   0  0  0  0  0  0  0  0  0  0  0  0
   68.4172   54.0493   14.6459 C   0  0  0  0  0  0  0  0  0  0  0  0
   69.0063   52.8277   14.7429 C   0  0  0  0  0  0  0  0  0  0  0  0
   68.5981   51.7904   13.9016 C   0  0  0  0  0  0  0  0  0  0  0  0
   70.6996   56.1914   13.8722 C   0  0  0  0  0  0  0  0  0  0  0  0
   71.5767   55.0896   13.3036 C   0  0  2  0  0  0  0  0  0  0  0  0
   70.7836   56.4191   17.6158 C   0  0  2  0  0  0  0  0  0  0  0  0
   70.8825   57.8826   18.0041 C   0  0  2  0  0  0  0  0  0  0  0  0
   73.1437   58.9488   17.6040 C   0  0  0  0  0  0  0  0  0  0  0  0
   74.8908   62.2644   20.0307 C   0  0  1  0  0  0  0  0  0  0  0  0
   72.6971   62.1520   20.2570 C   0  0  0  0  0  0  0  0  0  0  0  0
   70.1022   58.7504   17.1298 C   0  0  0  0  0  0  0  0  0  0  0  0
   69.1730   59.5933   17.9655 C   0  0  0  0  0  0  0  0  0  0  0  0
   68.3535   59.0385   18.9170 C   0  0  0  0  0  0  0  0  0  0  0  0
   67.5061   59.7698   19.6933 C   0  0  0  0  0  0  0  0  0  0  0  0
   67.4625   61.1329   19.5200 C   0  0  0  0  0  0  0  0  0  0  0  0
   68.2648   61.7294   18.5803 C   0  0  0  0  0  0  0  0  0  0  0  0
   69.1329   60.9613   17.7897 C   0  0  0  0  0  0  0  0  0  0  0  0
   66.3911   49.7879   12.7556 C   0  0  0  0  0  0  0  0  0  0  0  0
   67.1129   50.9046   12.0432 C   0  0  2  0  0  0  0  0  0  0  0  0
   72.8839   55.0400   14.0341 C   0  0  0  0  0  0  0  0  0  0  0  0
   71.7990   55.2005   11.8276 C   0  0  0  0  0  0  0  0  0  0  0  0
   70.3765   56.0160   15.2250 N   0  0  0  0  0  0  0  0  0  0  0  0
   72.1939   58.2469   18.3840 N   0  0  0  0  0  0  0  0  0  0  0  0
   67.8252   56.4498   15.4804 O   0  0  0  0  0  0  0  0  0  0  0  0
   68.7943   54.9241   17.0824 O   0  0  0  0  0  0  0  0  0  0  0  0
   71.3421   55.5667   18.5375 O   0  0  0  0  0  0  0  0  0  0  0  0
   73.4970   58.4472   16.5422 O   0  0  0  0  0  0  0  0  0  0  0  0
   73.6735   60.1687   18.0003 O   0  0  0  0  0  0  0  0  0  0  0  0
   75.0227   62.5761   18.6930 O   0  0  0  0  0  0  0  0  0  0  0  0
   73.7958   62.9189   20.5493 O   0  0  0  0  0  0  0  0  0  0  0  0
   68.2571   50.3107   11.4552 O   0  0  0  0  0  0  0  0  0  0  0  0
   68.8921   55.3753   15.6522 S   0  0  1  0  0  6  0  0  0  0  0  0
  1 14  1  0
 30  1  1  0
  2  3  1  0
  2  4  1  0
  2 36  1  6
  3 37  1  0
  4  5  1  6
  4 17  1  0
  5 18  1  0
  7  6  2  0
 11  6  1  0
  6 27  1  0
  8  7  1  0
  9  8  2  0
  9 10  1  0
 40  9  1  0
 10 11  2  0
 12 13  1  0
 30 12  1  0
 13 28  1  1
 13 29  1  0
 14 15  1  0
 14 34  1  1
 15 19  1  6
 15 31  1  0
 31 16  1  0
 16 35  2  0
 16 36  1  0
 17 37  1  6
 17 38  1  0
 38 18  1  0
 19 20  1  0
 20 21  2  0
 20 25  1  0
 21 22  1  0
 22 23  2  0
 24 23  1  0
 25 24  2  0
 27 26  1  1
 27 39  1  0
 40 30  1  6
 40 32  2  0
 40 33  2  0
M  END
$$$$
