
     RDKit          3D

 40 43  0  0  0  0  0  0  0  0999 V2000
   70.3175   56.8885   14.3501 C   0  0  0  0  0  0  0  0  0  0  0  0
   74.4536   59.9372   19.4079 C   0  0  1  0  0  0  0  0  0  0  0  0
   75.6651   60.8236   19.3729 C   0  0  0  0  0  0  0  0  0  0  0  0
   73.6308   60.6188   20.4948 C   0  0  2  0  0  0  0  0  0  0  0  0
   72.2218   60.8924   20.0774 C   0  0  0  0  0  0  0  0  0  0  0  0
   66.6119   52.2018   13.0365 C   0  0  0  0  0  0  0  0  0  0  0  0
   66.2178   53.5053   13.3720 C   0  0  0  0  0  0  0  0  0  0  0  0
   67.0194   54.2936   14.1617 C   0  0  0  0  0  0  0  0  0  0  0  0
   68.2356   53.8211   14.6467 C   0  0  0  0  0  0  0  0  0  0  0  0
   68.6260   52.5589   14.3253 C   0  0  0  0  0  0  0  0  0  0  0  0
   67.8077   51.7616   13.5221 C   0  0  0  0  0  0  0  0  0  0  0  0
   71.6881   54.8958   14.6338 C   0  0  0  0  0  0  0  0  0  0  0  0
   72.8825   55.8211   14.4782 C   0  0  2  0  0  0  0  0  0  0  0  0
   71.3392   57.8640   14.8763 C   0  0  2  0  0  0  0  0  0  0  0  0
   70.9401   58.3422   16.2599 C   0  0  2  0  0  0  0  0  0  0  0  0
   72.5774   59.2035   17.9882 C   0  0  0  0  0  0  0  0  0  0  0  0
   74.2272   61.9975   20.5479 C   0  0  1  0  0  0  0  0  0  0  0  0
   72.2527   62.3316   19.6171 C   0  0  0  0  0  0  0  0  0  0  0  0
   69.5026   58.5501   16.3901 C   0  0  0  0  0  0  0  0  0  0  0  0
   69.1940   59.0353   17.7836 C   0  0  0  0  0  0  0  0  0  0  0  0
   68.9279   58.1631   18.8098 C   0  0  0  0  0  0  0  0  0  0  0  0
   68.6507   58.5658   20.0812 C   0  0  0  0  0  0  0  0  0  0  0  0
   68.6332   59.9123   20.3582 C   0  0  0  0  0  0  0  0  0  0  0  0
   68.8938   60.8194   19.3624 C   0  0  0  0  0  0  0  0  0  0  0  0
   69.1787   60.3874   18.0582 C   0  0  0  0  0  0  0  0  0  0  0  0
   64.4423   50.9722   12.9312 C   0  0  0  0  0  0  0  0  0  0  0  0
   65.6755   51.4209   12.1873 C   0  0  2  0  0  0  0  0  0  0  0  0
   73.7294   55.7850   15.7136 C   0  0  0  0  0  0  0  0  0  0  0  0
   72.5104   57.2289   14.1323 C   0  0  0  0  0  0  0  0  0  0  0  0
   70.4659   55.5682   14.7722 N   0  0  0  0  0  0  0  0  0  0  0  0
   71.8476   59.2929   16.7789 N   0  0  0  0  0  0  0  0  0  0  0  0
   68.2935   55.9542   16.1486 O   0  0  0  0  0  0  0  0  0  0  0  0
   69.6483   54.0760   16.8338 O   0  0  0  0  0  0  0  0  0  0  0  0
   71.6030   58.8859   13.9963 O   0  0  0  0  0  0  0  0  0  0  0  0
   72.1531   58.4527   18.8600 O   0  0  0  0  0  0  0  0  0  0  0  0
   73.7408   59.9274   18.2081 O   0  0  0  0  0  0  0  0  0  0  0  0
   75.0741   62.1050   19.4636 O   0  0  0  0  0  0  0  0  0  0  0  0
   73.2018   62.9080   20.4220 O   0  0  0  0  0  0  0  0  0  0  0  0
   66.3613   50.2346   11.8267 O   0  0  0  0  0  0  0  0  0  0  0  0
   69.2153   54.8590   15.6263 S   0  0  1  0  0  6  0  0  0  0  0  0
  1 14  1  0
 30  1  1  0
  2  3  1  0
  2  4  1  0
  2 36  1  6
  3 37  1  0
  4  5  1  6
  4 17  1  0
  5 18  1  0
  7  6  2  0
 11  6  1  0
  6 27  1  0
  8  7  1  0
  9  8  2  0
  9 10  1  0
 40  9  1  0
 10 11  2  0
 12 13  1  0
 30 12  1  0
 13 28  1  1
 13 29  1  0
 14 15  1  0
 14 34  1  6
 15 19  1  6
 15 31  1  0
 31 16  1  0
 16 35  2  0
 16 36  1  0
 17 37  1  6
 17 38  1  0
 38 18  1  0
 19 20  1  0
 20 21  2  0
 20 25  1  0
 21 22  1  0
 22 23  2  0
 24 23  1  0
 25 24  2  0
 27 26  1  1
 27 39  1  0
 40 30  1  6
 40 32  2  0
 40 33  2  0
M  END
$$$$
