
     RDKit          3D

 40 43  0  0  0  0  0  0  0  0999 V2000
   71.1199   56.6350   15.3508 C   0  0  0  0  0  0  0  0  0  0  0  0
   74.2719   59.7440   19.1567 C   0  0  1  0  0  0  0  0  0  0  0  0
   75.6579   60.3090   19.0368 C   0  0  0  0  0  0  0  0  0  0  0  0
   73.6839   60.6522   20.2302 C   0  0  2  0  0  0  0  0  0  0  0  0
   72.3649   61.2390   19.8423 C   0  0  0  0  0  0  0  0  0  0  0  0
   67.5842   51.1610   13.4723 C   0  0  0  0  0  0  0  0  0  0  0  0
   68.4922   51.1761   14.5410 C   0  0  0  0  0  0  0  0  0  0  0  0
   68.9143   52.3676   15.0794 C   0  0  0  0  0  0  0  0  0  0  0  0
   68.4546   53.5830   14.5802 C   0  0  0  0  0  0  0  0  0  0  0  0
   67.5732   53.5775   13.5450 C   0  0  0  0  0  0  0  0  0  0  0  0
   67.1471   52.3637   13.0013 C   0  0  0  0  0  0  0  0  0  0  0  0
   71.3190   54.5731   14.0705 C   0  0  0  0  0  0  0  0  0  0  0  0
   72.7529   55.0220   13.8488 C   0  0  2  0  0  0  0  0  0  0  0  0
   70.3980   57.9153   15.0161 C   0  0  2  0  0  0  0  0  0  0  0  0
   70.3305   58.8114   16.2387 C   0  0  2  0  0  0  0  0  0  0  0  0
   72.3365   59.1820   17.7381 C   0  0  0  0  0  0  0  0  0  0  0  0
   74.5951   61.8470   20.1905 C   0  0  1  0  0  0  0  0  0  0  0  0
   72.7202   62.6060   19.3043 C   0  0  0  0  0  0  0  0  0  0  0  0
   69.1242   59.6301   16.2701 C   0  0  0  0  0  0  0  0  0  0  0  0
   68.8392   60.0425   17.6918 C   0  0  0  0  0  0  0  0  0  0  0  0
   69.0059   61.3377   18.1153 C   0  0  0  0  0  0  0  0  0  0  0  0
   68.7530   61.7466   19.3899 C   0  0  0  0  0  0  0  0  0  0  0  0
   68.3096   60.8209   20.3044 C   0  0  0  0  0  0  0  0  0  0  0  0
   68.1289   59.5150   19.9240 C   0  0  0  0  0  0  0  0  0  0  0  0
   68.3931   59.1110   18.6066 C   0  0  0  0  0  0  0  0  0  0  0  0
   68.3076   49.1407   12.1975 C   0  0  0  0  0  0  0  0  0  0  0  0
   67.1939   49.8261   12.9492 C   0  0  2  0  0  0  0  0  0  0  0  0
   73.2529   54.5232   12.5274 C   0  0  0  0  0  0  0  0  0  0  0  0
   73.6838   54.6243   14.9514 C   0  0  0  0  0  0  0  0  0  0  0  0
   70.5574   55.4688   14.8339 N   0  0  0  0  0  0  0  0  0  0  0  0
   71.5854   59.3789   16.5549 N   0  0  0  0  0  0  0  0  0  0  0  0
   68.0469   56.1471   14.8426 O   0  0  0  0  0  0  0  0  0  0  0  0
   68.8127   54.9390   16.7886 O   0  0  0  0  0  0  0  0  0  0  0  0
   69.1766   57.6996   14.4246 O   0  0  0  0  0  0  0  0  0  0  0  0
   71.9063   58.3848   18.5646 O   0  0  0  0  0  0  0  0  0  0  0  0
   73.5268   59.8528   17.9817 O   0  0  0  0  0  0  0  0  0  0  0  0
   75.3957   61.6980   19.0765 O   0  0  0  0  0  0  0  0  0  0  0  0
   73.8134   62.9716   20.0474 O   0  0  0  0  0  0  0  0  0  0  0  0
   66.1705   50.0565   11.9966 O   0  0  0  0  0  0  0  0  0  0  0  0
   69.0062   55.0562   15.3029 S   0  0  1  0  0  6  0  0  0  0  0  0
  1 14  1  0
 30  1  1  0
  2  3  1  0
  2  4  1  0
  2 36  1  6
  3 37  1  0
  4  5  1  6
  4 17  1  0
  5 18  1  0
  7  6  2  0
 11  6  1  0
  6 27  1  0
  8  7  1  0
  9  8  2  0
  9 10  1  0
 40  9  1  0
 10 11  2  0
 12 13  1  0
 30 12  1  0
 13 28  1  6
 13 29  1  0
 14 15  1  0
 14 34  1  1
 15 19  1  6
 15 31  1  0
 31 16  1  0
 16 35  2  0
 16 36  1  0
 17 37  1  6
 17 38  1  0
 38 18  1  0
 19 20  1  0
 20 21  2  0
 20 25  1  0
 21 22  1  0
 22 23  2  0
 24 23  1  0
 25 24  2  0
 27 26  1  6
 27 39  1  0
 40 30  1  1
 40 32  2  0
 40 33  2  0
M  END
$$$$
