
     RDKit          3D

 40 43  0  0  0  0  0  0  0  0999 V2000
   70.3678   56.5360   14.5783 C   0  0  0  0  0  0  0  0  0  0  0  0
   74.5745   59.7025   19.3135 C   0  0  1  0  0  0  0  0  0  0  0  0
   75.7767   60.5919   19.1790 C   0  0  0  0  0  0  0  0  0  0  0  0
   73.7339   60.5038   20.3006 C   0  0  2  0  0  0  0  0  0  0  0  0
   72.3261   60.7069   19.8406 C   0  0  0  0  0  0  0  0  0  0  0  0
   66.9371   51.5558   13.0577 C   0  0  0  0  0  0  0  0  0  0  0  0
   66.6690   52.9233   12.8998 C   0  0  0  0  0  0  0  0  0  0  0  0
   67.2696   53.8496   13.7178 C   0  0  0  0  0  0  0  0  0  0  0  0
   68.1537   53.4565   14.7185 C   0  0  0  0  0  0  0  0  0  0  0  0
   68.4203   52.1328   14.8776 C   0  0  0  0  0  0  0  0  0  0  0  0
   67.8074   51.1952   14.0436 C   0  0  0  0  0  0  0  0  0  0  0  0
   71.5034   54.4743   15.2024 C   0  0  0  0  0  0  0  0  0  0  0  0
   72.5584   54.7987   14.1590 C   0  0  2  0  0  0  0  0  0  0  0  0
   71.3873   57.4526   15.2051 C   0  0  2  0  0  0  0  0  0  0  0  0
   70.8280   58.0640   16.4762 C   0  0  2  0  0  0  0  0  0  0  0  0
   72.7876   58.6875   17.9530 C   0  0  0  0  0  0  0  0  0  0  0  0
   74.3150   61.8854   20.1871 C   0  0  1  0  0  0  0  0  0  0  0  0
   72.3463   62.0782   19.2056 C   0  0  0  0  0  0  0  0  0  0  0  0
   69.4099   58.3860   16.3685 C   0  0  0  0  0  0  0  0  0  0  0  0
   68.9332   58.9767   17.6710 C   0  0  0  0  0  0  0  0  0  0  0  0
   69.0093   60.3239   17.9239 C   0  0  0  0  0  0  0  0  0  0  0  0
   68.5835   60.8922   19.0864 C   0  0  0  0  0  0  0  0  0  0  0  0
   68.0508   60.0821   20.0609 C   0  0  0  0  0  0  0  0  0  0  0  0
   67.9556   58.7296   19.8502 C   0  0  0  0  0  0  0  0  0  0  0  0
   68.3980   58.1606   18.6464 C   0  0  0  0  0  0  0  0  0  0  0  0
   67.1727   49.7054   11.3991 C   0  0  0  0  0  0  0  0  0  0  0  0
   66.2331   50.6285   12.1344 C   0  0  2  0  0  0  0  0  0  0  0  0
   73.1716   53.5367   13.6334 C   0  0  0  0  0  0  0  0  0  0  0  0
   73.6165   55.7381   14.6469 C   0  0  0  0  0  0  0  0  0  0  0  0
   70.3327   55.2354   15.0788 N   0  0  0  0  0  0  0  0  0  0  0  0
   71.7247   58.9829   17.0663 N   0  0  0  0  0  0  0  0  0  0  0  0
   67.9032   55.8176   15.8010 O   0  0  0  0  0  0  0  0  0  0  0  0
   69.0032   54.1083   17.1055 O   0  0  0  0  0  0  0  0  0  0  0  0
   71.8846   58.3801   14.3215 O   0  0  0  0  0  0  0  0  0  0  0  0
   72.7311   57.6394   18.5872 O   0  0  0  0  0  0  0  0  0  0  0  0
   73.8736   59.5356   18.1182 O   0  0  0  0  0  0  0  0  0  0  0  0
   75.1712   61.8676   19.1051 O   0  0  0  0  0  0  0  0  0  0  0  0
   73.2812   62.7611   19.9407 O   0  0  0  0  0  0  0  0  0  0  0  0
   65.6317   51.4387   11.1397 O   0  0  0  0  0  0  0  0  0  0  0  0
   68.8949   54.6639   15.7133 S   0  0  1  0  0  6  0  0  0  0  0  0
  1 14  1  0
 30  1  1  0
  2  3  1  0
  2  4  1  0
  2 36  1  6
  3 37  1  0
  4  5  1  6
  4 17  1  0
  5 18  1  0
  7  6  2  0
 11  6  1  0
  6 27  1  0
  8  7  1  0
  9  8  2  0
  9 10  1  0
 40  9  1  0
 10 11  2  0
 12 13  1  0
 30 12  1  0
 13 28  1  1
 13 29  1  0
 14 15  1  0
 14 34  1  6
 15 19  1  6
 15 31  1  0
 31 16  1  0
 16 35  2  0
 16 36  1  0
 17 37  1  6
 17 38  1  0
 38 18  1  0
 19 20  1  0
 20 21  2  0
 20 25  1  0
 21 22  1  0
 22 23  2  0
 24 23  1  0
 25 24  2  0
 27 26  1  6
 27 39  1  0
 40 30  1  6
 40 32  2  0
 40 33  2  0
M  END
$$$$
