
     RDKit          3D

 40 43  0  0  0  0  0  0  0  0999 V2000
   70.8214   56.0952   15.0911 C   0  0  0  0  0  0  0  0  0  0  0  0
   74.1436   59.3082   19.5207 C   0  0  1  0  0  0  0  0  0  0  0  0
   75.4560   60.0277   19.4018 C   0  0  0  0  0  0  0  0  0  0  0  0
   73.3208   60.3371   20.2870 C   0  0  2  0  0  0  0  0  0  0  0  0
   72.0005   60.6246   19.6476 C   0  0  0  0  0  0  0  0  0  0  0  0
   71.3790   50.9875   12.6213 C   0  0  0  0  0  0  0  0  0  0  0  0
   72.0147   52.2373   12.5927 C   0  0  0  0  0  0  0  0  0  0  0  0
   71.3103   53.3834   12.8717 C   0  0  0  0  0  0  0  0  0  0  0  0
   69.9554   53.3337   13.1873 C   0  0  0  0  0  0  0  0  0  0  0  0
   69.3315   52.1261   13.2185 C   0  0  0  0  0  0  0  0  0  0  0  0
   70.0520   50.9640   12.9343 C   0  0  0  0  0  0  0  0  0  0  0  0
   68.6555   55.5499   16.0614 C   0  0  0  0  0  0  0  0  0  0  0  0
   68.4873   54.2451   16.8203 C   0  0  2  0  0  0  0  0  0  0  0  0
   70.8130   57.6002   15.0050 C   0  0  2  0  0  0  0  0  0  0  0  0
   70.4631   58.1983   16.3548 C   0  0  2  0  0  0  0  0  0  0  0  0
   72.2038   58.7299   18.1146 C   0  0  0  0  0  0  0  0  0  0  0  0
   74.0803   61.6126   20.0510 C   0  0  1  0  0  0  0  0  0  0  0  0
   72.2547   61.8742   18.8365 C   0  0  0  0  0  0  0  0  0  0  0  0
   69.0960   58.7031   16.4089 C   0  0  0  0  0  0  0  0  0  0  0  0
   68.9260   59.5486   17.6453 C   0  0  0  0  0  0  0  0  0  0  0  0
   67.7299   60.1492   17.9508 C   0  0  0  0  0  0  0  0  0  0  0  0
   67.5392   60.9147   19.0613 C   0  0  0  0  0  0  0  0  0  0  0  0
   68.5934   61.1011   19.9237 C   0  0  0  0  0  0  0  0  0  0  0  0
   69.8069   60.5190   19.6572 C   0  0  0  0  0  0  0  0  0  0  0  0
   69.9860   59.7324   18.5093 C   0  0  0  0  0  0  0  0  0  0  0  0
   72.6452   49.0325   13.5184 C   0  0  0  0  0  0  0  0  0  0  0  0
   72.2187   49.8058   12.2954 C   0  0  2  0  0  0  0  0  0  0  0  0
   67.5525   53.3349   16.0838 C   0  0  0  0  0  0  0  0  0  0  0  0
   68.0413   54.4278   18.2373 C   0  0  0  0  0  0  0  0  0  0  0  0
   69.5753   55.4760   15.0061 N   0  0  0  0  0  0  0  0  0  0  0  0
   71.5253   58.9585   16.8938 N   0  0  0  0  0  0  0  0  0  0  0  0
   69.4622   55.7804   12.4259 O   0  0  0  0  0  0  0  0  0  0  0  0
   67.6435   54.5367   13.4151 O   0  0  0  0  0  0  0  0  0  0  0  0
   70.0330   58.0708   13.9763 O   0  0  0  0  0  0  0  0  0  0  0  0
   71.5691   58.2345   19.0395 O   0  0  0  0  0  0  0  0  0  0  0  0
   73.5446   59.0430   18.2883 O   0  0  0  0  0  0  0  0  0  0  0  0
   75.0268   61.3374   19.0853 O   0  0  0  0  0  0  0  0  0  0  0  0
   73.1940   62.5511   19.5715 O   0  0  0  0  0  0  0  0  0  0  0  0
   73.4123   50.3121   11.7238 O   0  0  0  0  0  0  0  0  0  0  0  0
   69.1165   54.8052   13.5446 S   0  0  1  0  0  6  0  0  0  0  0  0
  1 14  1  0
 30  1  1  0
  2  3  1  0
  2  4  1  0
  2 36  1  6
  3 37  1  0
  4  5  1  6
  4 17  1  0
  5 18  1  0
  7  6  2  0
 11  6  1  0
  6 27  1  0
  8  7  1  0
  9  8  2  0
  9 10  1  0
 40  9  1  0
 10 11  2  0
 12 13  1  0
 30 12  1  0
 13 28  1  6
 13 29  1  0
 14 15  1  0
 14 34  1  6
 15 19  1  6
 15 31  1  0
 31 16  1  0
 16 35  2  0
 16 36  1  0
 17 37  1  6
 17 38  1  0
 38 18  1  0
 19 20  1  0
 20 21  2  0
 20 25  1  0
 21 22  1  0
 22 23  2  0
 24 23  1  0
 25 24  2  0
 27 26  1  1
 27 39  1  0
 40 30  1  1
 40 32  2  0
 40 33  2  0
M  END
$$$$
