
     RDKit          3D

 40 43  0  0  0  0  0  0  0  0999 V2000
   70.2398   56.6630   13.9052 C   0  0  0  0  0  0  0  0  0  0  0  0
   73.6945   59.6603   19.2499 C   0  0  1  0  0  0  0  0  0  0  0  0
   74.9927   60.2071   18.7301 C   0  0  0  0  0  0  0  0  0  0  0  0
   73.2990   60.7513   20.2380 C   0  0  2  0  0  0  0  0  0  0  0  0
   71.8991   61.2380   20.0432 C   0  0  0  0  0  0  0  0  0  0  0  0
   66.4846   52.1042   13.0103 C   0  0  0  0  0  0  0  0  0  0  0  0
   67.5129   51.5977   13.8184 C   0  0  0  0  0  0  0  0  0  0  0  0
   68.3045   52.4477   14.5522 C   0  0  0  0  0  0  0  0  0  0  0  0
   68.1078   53.8252   14.5119 C   0  0  0  0  0  0  0  0  0  0  0  0
   67.1123   54.3246   13.7320 C   0  0  0  0  0  0  0  0  0  0  0  0
   66.3103   53.4564   12.9881 C   0  0  0  0  0  0  0  0  0  0  0  0
   71.6822   54.8795   14.7228 C   0  0  0  0  0  0  0  0  0  0  0  0
   72.6719   55.3333   13.6639 C   0  0  2  0  0  0  0  0  0  0  0  0
   71.0980   57.8185   14.3532 C   0  0  2  0  0  0  0  0  0  0  0  0
   70.7767   58.1804   15.7913 C   0  0  2  0  0  0  0  0  0  0  0  0
   72.0223   58.3623   17.9879 C   0  0  0  0  0  0  0  0  0  0  0  0
   74.1177   61.9262   19.7812 C   0  0  1  0  0  0  0  0  0  0  0  0
   72.0613   62.4799   19.1974 C   0  0  0  0  0  0  0  0  0  0  0  0
   70.0613   59.4459   15.9062 C   0  0  0  0  0  0  0  0  0  0  0  0
   69.3719   59.5082   17.2454 C   0  0  0  0  0  0  0  0  0  0  0  0
   68.7033   60.6326   17.6620 C   0  0  0  0  0  0  0  0  0  0  0  0
   68.0651   60.7220   18.8621 C   0  0  0  0  0  0  0  0  0  0  0  0
   68.0885   59.6361   19.7048 C   0  0  0  0  0  0  0  0  0  0  0  0
   68.7450   58.4916   19.3284 C   0  0  0  0  0  0  0  0  0  0  0  0
   69.3963   58.4159   18.0880 C   0  0  0  0  0  0  0  0  0  0  0  0
   64.2400   51.0685   12.6651 C   0  0  0  0  0  0  0  0  0  0  0  0
   65.6882   51.1101   12.2452 C   0  0  2  0  0  0  0  0  0  0  0  0
   73.1532   54.1585   12.8682 C   0  0  0  0  0  0  0  0  0  0  0  0
   73.8275   56.1087   14.2149 C   0  0  0  0  0  0  0  0  0  0  0  0
   70.4163   55.4697   14.6040 N   0  0  0  0  0  0  0  0  0  0  0  0
   71.8440   57.8829   16.6683 N   0  0  0  0  0  0  0  0  0  0  0  0
   68.2480   56.0080   15.9350 O   0  0  0  0  0  0  0  0  0  0  0  0
   69.5042   54.0954   16.7076 O   0  0  0  0  0  0  0  0  0  0  0  0
   71.0441   58.8878   13.4920 O   0  0  0  0  0  0  0  0  0  0  0  0
   71.5440   57.7054   18.9063 O   0  0  0  0  0  0  0  0  0  0  0  0
   72.7141   59.5331   18.2649 O   0  0  0  0  0  0  0  0  0  0  0  0
   74.6725   61.5748   18.5676 O   0  0  0  0  0  0  0  0  0  0  0  0
   73.2657   62.9936   19.6050 O   0  0  0  0  0  0  0  0  0  0  0  0
   66.2209   49.8383   12.5716 O   0  0  0  0  0  0  0  0  0  0  0  0
   69.1234   54.8521   15.4662 S   0  0  1  0  0  6  0  0  0  0  0  0
  1 14  1  0
 30  1  1  0
  2  3  1  0
  2  4  1  0
  2 36  1  6
  3 37  1  0
  4  5  1  6
  4 17  1  0
  5 18  1  0
  7  6  2  0
 11  6  1  0
  6 27  1  0
  8  7  1  0
  9  8  2  0
  9 10  1  0
 40  9  1  0
 10 11  2  0
 12 13  1  0
 30 12  1  0
 13 28  1  1
 13 29  1  0
 14 15  1  0
 14 34  1  6
 15 19  1  6
 15 31  1  0
 31 16  1  0
 16 35  2  0
 16 36  1  0
 17 37  1  6
 17 38  1  0
 38 18  1  0
 19 20  1  0
 20 21  2  0
 20 25  1  0
 21 22  1  0
 22 23  2  0
 24 23  1  0
 25 24  2  0
 27 26  1  1
 27 39  1  0
 40 30  1  6
 40 32  2  0
 40 33  2  0
M  END
$$$$
