
     RDKit          3D

 40 43  0  0  0  0  0  0  0  0999 V2000
   70.0594   57.0731   14.4316 C   0  0  0  0  0  0  0  0  0  0  0  0
   74.7357   59.5043   19.1702 C   0  0  1  0  0  0  0  0  0  0  0  0
   76.0382   60.2488   19.2324 C   0  0  0  0  0  0  0  0  0  0  0  0
   73.8980   60.3091   20.1569 C   0  0  2  0  0  0  0  0  0  0  0  0
   72.5744   60.7235   19.5993 C   0  0  0  0  0  0  0  0  0  0  0  0
   66.9687   51.6337   12.7865 C   0  0  0  0  0  0  0  0  0  0  0  0
   68.3662   51.7503   12.7998 C   0  0  0  0  0  0  0  0  0  0  0  0
   68.9771   52.7169   13.5614 C   0  0  0  0  0  0  0  0  0  0  0  0
   68.2288   53.6005   14.3341 C   0  0  0  0  0  0  0  0  0  0  0  0
   66.8733   53.4936   14.3280 C   0  0  0  0  0  0  0  0  0  0  0  0
   66.2572   52.5093   13.5522 C   0  0  0  0  0  0  0  0  0  0  0  0
   71.2374   55.0408   13.7898 C   0  0  0  0  0  0  0  0  0  0  0  0
   72.5465   55.1912   14.5450 C   0  0  2  0  0  0  0  0  0  0  0  0
   71.2633   57.8008   14.9734 C   0  0  2  0  0  0  0  0  0  0  0  0
   70.8894   58.5656   16.2294 C   0  0  2  0  0  0  0  0  0  0  0  0
   73.0522   58.7610   17.5309 C   0  0  0  0  0  0  0  0  0  0  0  0
   74.6399   61.6139   20.2360 C   0  0  1  0  0  0  0  0  0  0  0  0
   72.8120   62.1341   19.1115 C   0  0  0  0  0  0  0  0  0  0  0  0
   69.5751   59.1904   16.1371 C   0  0  0  0  0  0  0  0  0  0  0  0
   68.8077   58.9257   17.4073 C   0  0  0  0  0  0  0  0  0  0  0  0
   69.0933   59.5886   18.5752 C   0  0  0  0  0  0  0  0  0  0  0  0
   68.4174   59.3788   19.7391 C   0  0  0  0  0  0  0  0  0  0  0  0
   67.3975   58.4572   19.7534 C   0  0  0  0  0  0  0  0  0  0  0  0
   67.0780   57.7719   18.6084 C   0  0  0  0  0  0  0  0  0  0  0  0
   67.7837   58.0011   17.4176 C   0  0  0  0  0  0  0  0  0  0  0  0
   67.0510   50.4947   10.5670 C   0  0  0  0  0  0  0  0  0  0  0  0
   66.3979   50.5661   11.9249 C   0  0  2  0  0  0  0  0  0  0  0  0
   73.6451   54.4707   13.8247 C   0  0  0  0  0  0  0  0  0  0  0  0
   72.4703   54.7485   15.9728 C   0  0  0  0  0  0  0  0  0  0  0  0
   70.1530   55.6825   14.4041 N   0  0  0  0  0  0  0  0  0  0  0  0
   71.9835   59.2828   16.7636 N   0  0  0  0  0  0  0  0  0  0  0  0
   67.9716   55.7308   15.8191 O   0  0  0  0  0  0  0  0  0  0  0  0
   69.6212   54.1000   16.4918 O   0  0  0  0  0  0  0  0  0  0  0  0
   71.8902   58.5733   14.0255 O   0  0  0  0  0  0  0  0  0  0  0  0
   72.9976   57.5818   17.8631 O   0  0  0  0  0  0  0  0  0  0  0  0
   74.1417   59.5337   17.9077 O   0  0  0  0  0  0  0  0  0  0  0  0
   75.5910   61.5903   19.2365 O   0  0  0  0  0  0  0  0  0  0  0  0
   73.7411   62.6281   19.9911 O   0  0  0  0  0  0  0  0  0  0  0  0
   65.0490   50.9277   11.6853 O   0  0  0  0  0  0  0  0  0  0  0  0
   69.0472   54.7914   15.2872 S   0  0  1  0  0  6  0  0  0  0  0  0
  1 14  1  0
 30  1  1  0
  2  3  1  0
  2  4  1  0
  2 36  1  6
  3 37  1  0
  4  5  1  6
  4 17  1  0
  5 18  1  0
  7  6  2  0
 11  6  1  0
  6 27  1  0
  8  7  1  0
  9  8  2  0
  9 10  1  0
 40  9  1  0
 10 11  2  0
 12 13  1  0
 30 12  1  0
 13 28  1  6
 13 29  1  0
 14 15  1  0
 14 34  1  6
 15 19  1  6
 15 31  1  0
 31 16  1  0
 16 35  2  0
 16 36  1  0
 17 37  1  6
 17 38  1  0
 38 18  1  0
 19 20  1  0
 20 21  2  0
 20 25  1  0
 21 22  1  0
 22 23  2  0
 24 23  1  0
 25 24  2  0
 27 26  1  6
 27 39  1  0
 40 30  1  6
 40 32  2  0
 40 33  2  0
M  END
$$$$
