
     RDKit          3D

 40 43  0  0  0  0  0  0  0  0999 V2000
   70.0030   55.6501   14.0567 C   0  0  0  0  0  0  0  0  0  0  0  0
   73.7275   59.3817   18.7134 C   0  0  1  0  0  0  0  0  0  0  0  0
   74.9940   59.9245   18.1170 C   0  0  0  0  0  0  0  0  0  0  0  0
   73.3826   60.4846   19.7071 C   0  0  2  0  0  0  0  0  0  0  0  0
   71.9727   60.9654   19.5819 C   0  0  0  0  0  0  0  0  0  0  0  0
   64.4723   56.1074   17.8266 C   0  0  0  0  0  0  0  0  0  0  0  0
   64.7634   54.9829   17.0407 C   0  0  0  0  0  0  0  0  0  0  0  0
   66.0413   54.7625   16.5868 C   0  0  0  0  0  0  0  0  0  0  0  0
   67.0734   55.6449   16.8930 C   0  0  0  0  0  0  0  0  0  0  0  0
   66.8002   56.7370   17.6554 C   0  0  0  0  0  0  0  0  0  0  0  0
   65.4997   56.9565   18.1145 C   0  0  0  0  0  0  0  0  0  0  0  0
   67.6799   54.9465   13.8615 C   0  0  0  0  0  0  0  0  0  0  0  0
   68.0720   54.3650   12.5143 C   0  0  2  0  0  0  0  0  0  0  0  0
   70.6052   56.9806   14.4302 C   0  0  2  0  0  0  0  0  0  0  0  0
   72.0018   56.7829   14.9895 C   0  0  2  0  0  0  0  0  0  0  0  0
   72.3636   58.0496   17.1515 C   0  0  0  0  0  0  0  0  0  0  0  0
   74.1718   61.6554   19.1914 C   0  0  1  0  0  0  0  0  0  0  0  0
   72.0852   62.1965   18.7124 C   0  0  0  0  0  0  0  0  0  0  0  0
   72.2250   55.4273   15.4784 C   0  0  0  0  0  0  0  0  0  0  0  0
   73.6940   55.2339   15.7563 C   0  0  0  0  0  0  0  0  0  0  0  0
   74.1404   54.6835   16.9321 C   0  0  0  0  0  0  0  0  0  0  0  0
   75.4588   54.4891   17.2142 C   0  0  0  0  0  0  0  0  0  0  0  0
   76.3958   54.8617   16.2798 C   0  0  0  0  0  0  0  0  0  0  0  0
   75.9938   55.4155   15.0906 C   0  0  0  0  0  0  0  0  0  0  0  0
   74.6315   55.6077   14.8155 C   0  0  0  0  0  0  0  0  0  0  0  0
   62.4410   57.5572   17.7832 C   0  0  0  0  0  0  0  0  0  0  0  0
   63.0608   56.2680   18.2621 C   0  0  2  0  0  0  0  0  0  0  0  0
   68.0152   55.4249   11.4568 C   0  0  0  0  0  0  0  0  0  0  0  0
   67.2582   53.1741   12.1145 C   0  0  0  0  0  0  0  0  0  0  0  0
   68.7712   55.3568   14.6398 N   0  0  0  0  0  0  0  0  0  0  0  0
   72.4362   57.8941   15.7466 N   0  0  0  0  0  0  0  0  0  0  0  0
   69.5715   56.3991   16.8839 O   0  0  0  0  0  0  0  0  0  0  0  0
   69.1277   54.0255   16.9302 O   0  0  0  0  0  0  0  0  0  0  0  0
   69.7872   57.7260   15.2447 O   0  0  0  0  0  0  0  0  0  0  0  0
   71.9950   57.0876   17.8167 O   0  0  0  0  0  0  0  0  0  0  0  0
   72.6957   59.2391   17.7846 O   0  0  0  0  0  0  0  0  0  0  0  0
   74.6613   61.2893   17.9543 O   0  0  0  0  0  0  0  0  0  0  0  0
   73.3083   62.7184   19.0477 O   0  0  0  0  0  0  0  0  0  0  0  0
   63.0887   56.3554   19.6760 O   0  0  0  0  0  0  0  0  0  0  0  0
   68.6689   55.3145   16.3084 S   0  0  1  0  0  6  0  0  0  0  0  0
  1 14  1  0
 30  1  1  0
  2  3  1  0
  2  4  1  0
  2 36  1  6
  3 37  1  0
  4  5  1  6
  4 17  1  0
  5 18  1  0
  7  6  2  0
 11  6  1  0
  6 27  1  0
  8  7  1  0
  9  8  2  0
  9 10  1  0
 40  9  1  0
 10 11  2  0
 12 13  1  0
 30 12  1  0
 13 28  1  6
 13 29  1  0
 14 15  1  0
 14 34  1  1
 15 19  1  1
 15 31  1  0
 31 16  1  0
 16 35  2  0
 16 36  1  0
 17 37  1  6
 17 38  1  0
 38 18  1  0
 19 20  1  0
 20 21  2  0
 20 25  1  0
 21 22  1  0
 22 23  2  0
 24 23  1  0
 25 24  2  0
 27 26  1  6
 27 39  1  0
 40 30  1  6
 40 32  2  0
 40 33  2  0
M  END
$$$$
