
     RDKit          3D

 40 43  0  0  0  0  0  0  0  0999 V2000
   71.6823   56.4096   15.3132 C   0  0  0  0  0  0  0  0  0  0  0  0
   72.6672   60.4143   19.8020 C   0  0  1  0  0  0  0  0  0  0  0  0
   73.1833   60.5814   21.2021 C   0  0  0  0  0  0  0  0  0  0  0  0
   73.6605   61.2711   19.0260 C   0  0  2  0  0  0  0  0  0  0  0  0
   74.2579   60.5593   17.8551 C   0  0  0  0  0  0  0  0  0  0  0  0
   66.9984   52.1754   12.8874 C   0  0  0  0  0  0  0  0  0  0  0  0
   66.8522   53.5638   12.7532 C   0  0  0  0  0  0  0  0  0  0  0  0
   67.5926   54.4203   13.5316 C   0  0  0  0  0  0  0  0  0  0  0  0
   68.5007   53.9348   14.4682 C   0  0  0  0  0  0  0  0  0  0  0  0
   68.6496   52.5901   14.6039 C   0  0  0  0  0  0  0  0  0  0  0  0
   67.8948   51.7237   13.8103 C   0  0  0  0  0  0  0  0  0  0  0  0
   71.4601   54.5276   13.7839 C   0  0  0  0  0  0  0  0  0  0  0  0
   72.9500   54.2783   13.9416 C   0  0  2  0  0  0  0  0  0  0  0  0
   71.0788   57.7885   15.2295 C   0  0  2  0  0  0  0  0  0  0  0  0
   70.5337   58.2027   16.5836 C   0  0  2  0  0  0  0  0  0  0  0  0
   72.5527   58.7115   18.0240 C   0  0  0  0  0  0  0  0  0  0  0  0
   74.8236   61.3716   19.9729 C   0  0  1  0  0  0  0  0  0  0  0  0
   75.5758   60.0388   18.3809 C   0  0  0  0  0  0  0  0  0  0  0  0
   69.1017   58.4761   16.5537 C   0  0  0  0  0  0  0  0  0  0  0  0
   68.6826   59.0804   17.8697 C   0  0  0  0  0  0  0  0  0  0  0  0
   68.1914   58.3101   18.8944 C   0  0  0  0  0  0  0  0  0  0  0  0
   67.8087   58.8214   20.0977 C   0  0  0  0  0  0  0  0  0  0  0  0
   67.9154   60.1764   20.3033 C   0  0  0  0  0  0  0  0  0  0  0  0
   68.4014   60.9839   19.3061 C   0  0  0  0  0  0  0  0  0  0  0  0
   68.7923   60.4407   18.0729 C   0  0  0  0  0  0  0  0  0  0  0  0
   66.9473   50.3626   11.1724 C   0  0  0  0  0  0  0  0  0  0  0  0
   66.1481   51.3287   12.0111 C   0  0  2  0  0  0  0  0  0  0  0  0
   73.3644   53.0892   13.1297 C   0  0  0  0  0  0  0  0  0  0  0  0
   73.3858   54.1252   15.3653 C   0  0  0  0  0  0  0  0  0  0  0  0
   70.9231   55.3806   14.7581 N   0  0  0  0  0  0  0  0  0  0  0  0
   71.4112   59.0727   17.2692 N   0  0  0  0  0  0  0  0  0  0  0  0
   68.6120   56.3476   15.4557 O   0  0  0  0  0  0  0  0  0  0  0  0
   69.4514   54.5458   16.8276 O   0  0  0  0  0  0  0  0  0  0  0  0
   70.1665   57.9099   14.2092 O   0  0  0  0  0  0  0  0  0  0  0  0
   73.4155   58.0372   17.4720 O   0  0  0  0  0  0  0  0  0  0  0  0
   72.7196   59.0960   19.3470 O   0  0  0  0  0  0  0  0  0  0  0  0
   74.5788   60.4801   20.9973 O   0  0  0  0  0  0  0  0  0  0  0  0
   75.9582   60.9893   19.2925 O   0  0  0  0  0  0  0  0  0  0  0  0
   65.5223   52.2090   11.0940 O   0  0  0  0  0  0  0  0  0  0  0  0
   69.4196   55.0560   15.4143 S   0  0  1  0  0  6  0  0  0  0  0  0
  1 14  1  0
 30  1  1  0
  2  3  1  0
  2  4  1  0
  2 36  1  6
  3 37  1  0
  4  5  1  6
  4 17  1  0
  5 18  1  0
  7  6  2  0
 11  6  1  0
  6 27  1  0
  8  7  1  0
  9  8  2  0
  9 10  1  0
 40  9  1  0
 10 11  2  0
 12 13  1  0
 30 12  1  0
 13 28  1  6
 13 29  1  0
 14 15  1  0
 14 34  1  6
 15 19  1  6
 15 31  1  0
 31 16  1  0
 16 35  2  0
 16 36  1  0
 17 37  1  1
 17 38  1  0
 38 18  1  0
 19 20  1  0
 20 21  2  0
 20 25  1  0
 21 22  1  0
 22 23  2  0
 24 23  1  0
 25 24  2  0
 27 26  1  6
 27 39  1  0
 40 30  1  6
 40 32  2  0
 40 33  2  0
M  END
$$$$
