
     RDKit          3D

 26 29  0  0  0  0  0  0  0  0999 V2000
   -8.8355   27.7970   50.9866 C   0  0  0  0  0  0  0  0  0  0  0  0
   -8.7236   28.9939   48.8902 C   0  0  0  0  0  0  0  0  0  0  0  0
  -13.5680   26.7113   54.3845 C   0  0  1  0  0  0  0  0  0  0  0  0
  -13.3048   27.8500   56.3028 C   0  0  0  0  0  0  0  0  0  0  0  0
  -13.4806   21.3388   53.1673 C   0  0  0  0  0  0  0  0  0  0  0  0
   -8.4281   25.2025   51.0423 O   0  0  0  0  0  0  0  0  0  0  0  0
   -8.8827   26.3336   51.9341 S   0  0  1  0  0  6  0  0  0  0  0  0
   -7.8754   26.5026   53.0494 O   0  0  0  0  0  0  0  0  0  0  0  0
   -8.7642   27.8002   49.6121 C   0  0  0  0  0  0  0  0  0  0  0  0
   -8.8657   29.0127   51.6349 C   0  0  0  0  0  0  0  0  0  0  0  0
   -8.9560   29.0679   53.3827 Cl  0  0  0  0  0  0  0  0  0  0  0  0
   -8.8262   30.2141   50.9357 C   0  0  0  0  0  0  0  0  0  0  0  0
   -8.7551   30.1984   49.5614 C   0  0  0  0  0  0  0  0  0  0  0  0
  -10.4063   26.0185   52.6323 N   0  0  0  0  0  0  0  0  0  0  0  0
  -11.2510   26.8662   53.2441 C   0  0  0  0  0  0  0  0  0  0  0  0
  -10.9888   24.8062   52.6644 C   0  0  0  0  0  0  0  0  0  0  0  0
  -10.5734   23.5564   52.1801 C   0  0  0  0  0  0  0  0  0  0  0  0
  -12.2063   24.8880   53.2989 C   0  0  0  0  0  0  0  0  0  0  0  0
  -12.9878   23.7501   53.4457 C   0  0  0  0  0  0  0  0  0  0  0  0
  -12.5927   22.5160   52.9753 C   0  0  0  0  0  0  0  0  0  0  0  0
  -11.3705   22.4453   52.3405 C   0  0  0  0  0  0  0  0  0  0  0  0
  -12.3677   26.2117   53.6679 C   0  0  0  0  0  0  0  0  0  0  0  0
  -13.2903   26.6857   55.7985 N   0  0  0  0  0  0  0  0  0  0  0  0
  -13.8814   28.1419   54.0921 C   0  0  0  0  0  0  0  0  0  0  0  0
  -13.5918   28.8473   55.3238 N   0  0  0  0  0  0  0  0  0  0  0  0
  -13.0582   28.2045   57.7456 C   0  0  0  0  0  0  0  0  0  0  0  0
  7  1  1  0
  1  9  1  0
  1 10  2  0
  9  2  2  0
  2 13  1  0
  3 22  1  6
  3 23  1  0
  3 24  1  0
 23  4  2  0
  4 25  1  0
  4 26  1  0
 20  5  1  0
  7  6  2  0
  7  8  2  0
  7 14  1  1
 10 11  1  0
 10 12  1  0
 12 13  2  0
 15 14  1  0
 16 14  1  0
 22 15  2  0
 16 17  2  0
 18 16  1  0
 17 21  1  0
 19 18  2  0
 18 22  1  0
 19 20  1  0
 20 21  2  0
 24 25  1  0
M  END
$$$$
