
     RDKit          3D

 26 29  0  0  0  0  0  0  0  0999 V2000
   -7.9824   26.5308   50.6424 C   0  0  0  0  0  0  0  0  0  0  0  0
   -6.8022   25.9672   48.6102 C   0  0  0  0  0  0  0  0  0  0  0  0
  -13.6769   26.5162   52.9882 C   0  0  1  0  0  0  0  0  0  0  0  0
  -14.1999   27.7050   54.8209 C   0  0  0  0  0  0  0  0  0  0  0  0
  -12.9326   21.0577   52.9215 C   0  0  0  0  0  0  0  0  0  0  0  0
   -7.5399   25.1427   52.8282 O   0  0  0  0  0  0  0  0  0  0  0  0
   -8.4272   26.2472   52.3047 S   0  0  1  0  0  6  0  0  0  0  0  0
   -8.1142   27.5173   53.0635 O   0  0  0  0  0  0  0  0  0  0  0  0
   -7.1376   25.7027   49.9389 C   0  0  0  0  0  0  0  0  0  0  0  0
   -8.4913   27.6357   49.9949 C   0  0  0  0  0  0  0  0  0  0  0  0
   -9.5707   28.7236   50.8418 Cl  0  0  0  0  0  0  0  0  0  0  0  0
   -8.1705   27.9185   48.6716 C   0  0  0  0  0  0  0  0  0  0  0  0
   -7.3242   27.0794   47.9834 C   0  0  0  0  0  0  0  0  0  0  0  0
  -10.0806   25.8891   52.5197 N   0  0  0  0  0  0  0  0  0  0  0  0
  -11.1209   26.7299   52.6506 C   0  0  0  0  0  0  0  0  0  0  0  0
  -10.5824   24.6430   52.5942 C   0  0  0  0  0  0  0  0  0  0  0  0
   -9.9699   23.3827   52.5200 C   0  0  0  0  0  0  0  0  0  0  0  0
  -11.9451   24.6965   52.7729 C   0  0  0  0  0  0  0  0  0  0  0  0
  -12.6761   23.5208   52.8751 C   0  0  0  0  0  0  0  0  0  0  0  0
  -12.0882   22.2760   52.8042 C   0  0  0  0  0  0  0  0  0  0  0  0
  -10.7214   22.2338   52.6247 C   0  0  0  0  0  0  0  0  0  0  0  0
  -12.2833   26.0377   52.8082 C   0  0  0  0  0  0  0  0  0  0  0  0
  -13.9684   26.5307   54.3995 N   0  0  0  0  0  0  0  0  0  0  0  0
  -13.8806   27.9296   52.5510 C   0  0  0  0  0  0  0  0  0  0  0  0
  -14.1046   28.6709   53.7752 N   0  0  0  0  0  0  0  0  0  0  0  0
  -14.5387   28.0991   56.2344 C   0  0  0  0  0  0  0  0  0  0  0  0
  7  1  1  0
  1  9  1  0
  1 10  2  0
  9  2  2  0
  2 13  1  0
  3 22  1  1
  3 23  1  0
  3 24  1  0
 23  4  2  0
  4 25  1  0
  4 26  1  0
 20  5  1  0
  7  6  2  0
  7  8  2  0
  7 14  1  6
 10 11  1  0
 10 12  1  0
 12 13  2  0
 15 14  1  0
 16 14  1  0
 22 15  2  0
 16 17  2  0
 18 16  1  0
 17 21  1  0
 19 18  2  0
 18 22  1  0
 19 20  1  0
 20 21  2  0
 24 25  1  0
M  END
$$$$
