
     RDKit          3D

 26 29  0  0  0  0  0  0  0  0999 V2000
   -8.6537   27.9914   51.0958 C   0  0  0  0  0  0  0  0  0  0  0  0
   -7.5454   30.1251   51.3386 C   0  0  0  0  0  0  0  0  0  0  0  0
  -13.0380   26.7346   54.9558 C   0  0  1  0  0  0  0  0  0  0  0  0
  -13.4574   28.8903   55.4275 C   0  0  0  0  0  0  0  0  0  0  0  0
  -12.6685   21.3951   53.6492 C   0  0  0  0  0  0  0  0  0  0  0  0
  -10.8032   27.7670   49.6025 O   0  0  0  0  0  0  0  0  0  0  0  0
  -10.0002   26.9906   50.6193 S   0  0  1  0  0  6  0  0  0  0  0  0
   -9.4189   25.7691   49.9434 O   0  0  0  0  0  0  0  0  0  0  0  0
   -8.6454   29.3597   50.9487 C   0  0  0  0  0  0  0  0  0  0  0  0
   -7.5387   27.3935   51.6421 C   0  0  0  0  0  0  0  0  0  0  0  0
   -7.4946   25.6557   51.8522 Cl  0  0  0  0  0  0  0  0  0  0  0  0
   -6.4316   28.1365   52.0373 C   0  0  0  0  0  0  0  0  0  0  0  0
   -6.4408   29.5039   51.8829 C   0  0  0  0  0  0  0  0  0  0  0  0
  -10.9639   26.4711   51.9267 N   0  0  0  0  0  0  0  0  0  0  0  0
  -11.5571   27.2014   52.8865 C   0  0  0  0  0  0  0  0  0  0  0  0
  -11.2671   25.1851   52.1803 C   0  0  0  0  0  0  0  0  0  0  0  0
  -10.9275   23.9962   51.5166 C   0  0  0  0  0  0  0  0  0  0  0  0
  -12.0549   25.1022   53.3046 C   0  0  0  0  0  0  0  0  0  0  0  0
  -12.4915   23.8633   53.7539 C   0  0  0  0  0  0  0  0  0  0  0  0
  -12.1658   22.6874   53.1124 C   0  0  0  0  0  0  0  0  0  0  0  0
  -11.3757   22.7819   51.9860 C   0  0  0  0  0  0  0  0  0  0  0  0
  -12.2367   26.3988   53.7521 C   0  0  0  0  0  0  0  0  0  0  0  0
  -12.5626   27.9918   55.4758 N   0  0  0  0  0  0  0  0  0  0  0  0
  -14.4818   26.9756   54.6597 C   0  0  0  0  0  0  0  0  0  0  0  0
  -14.6749   28.3955   54.8723 N   0  0  0  0  0  0  0  0  0  0  0  0
  -13.3176   30.3192   55.8823 C   0  0  0  0  0  0  0  0  0  0  0  0
  7  1  1  0
  1  9  1  0
  1 10  2  0
  9  2  2  0
  2 13  1  0
  3 22  1  6
  3 23  1  0
  3 24  1  0
 23  4  2  0
  4 25  1  0
  4 26  1  0
 20  5  1  0
  7  6  2  0
  7  8  2  0
  7 14  1  1
 10 11  1  0
 10 12  1  0
 12 13  2  0
 15 14  1  0
 16 14  1  0
 22 15  2  0
 16 17  2  0
 18 16  1  0
 17 21  1  0
 19 18  2  0
 18 22  1  0
 19 20  1  0
 20 21  2  0
 24 25  1  0
M  END
$$$$
