
     RDKit          3D

 26 29  0  0  0  0  0  0  0  0999 V2000
   -7.6044   26.7231   50.3792 C   0  0  0  0  0  0  0  0  0  0  0  0
   -7.5661   26.6625   47.9637 C   0  0  0  0  0  0  0  0  0  0  0  0
  -12.4000   23.7722   52.8946 C   0  0  1  0  0  0  0  0  0  0  0  0
  -13.4467   23.3531   50.9517 C   0  0  0  0  0  0  0  0  0  0  0  0
   -8.4410   21.4989   55.9788 C   0  0  0  0  0  0  0  0  0  0  0  0
   -7.2760   27.4160   52.8917 O   0  0  0  0  0  0  0  0  0  0  0  0
   -8.3687   27.0697   51.9081 S   0  0  1  0  0  6  0  0  0  0  0  0
   -9.2327   28.2928   51.6972 O   0  0  0  0  0  0  0  0  0  0  0  0
   -8.2101   26.9583   49.1660 C   0  0  0  0  0  0  0  0  0  0  0  0
   -6.3363   26.1838   50.3746 C   0  0  0  0  0  0  0  0  0  0  0  0
   -5.5182   25.8637   51.8893 Cl  0  0  0  0  0  0  0  0  0  0  0  0
   -5.6759   25.8813   49.1887 C   0  0  0  0  0  0  0  0  0  0  0  0
   -6.2968   26.1233   47.9846 C   0  0  0  0  0  0  0  0  0  0  0  0
   -9.3606   25.8060   52.4800 N   0  0  0  0  0  0  0  0  0  0  0  0
  -10.6516   25.5507   52.2070 C   0  0  0  0  0  0  0  0  0  0  0  0
   -8.9519   24.8487   53.3324 C   0  0  0  0  0  0  0  0  0  0  0  0
   -7.7130   24.6114   53.9473 C   0  0  0  0  0  0  0  0  0  0  0  0
   -9.9886   23.9851   53.5992 C   0  0  0  0  0  0  0  0  0  0  0  0
   -9.7919   22.9125   54.4584 C   0  0  0  0  0  0  0  0  0  0  0  0
   -8.5808   22.6671   55.0695 C   0  0  0  0  0  0  0  0  0  0  0  0
   -7.5482   23.5390   54.7950 C   0  0  0  0  0  0  0  0  0  0  0  0
  -11.0751   24.4413   52.8742 C   0  0  0  0  0  0  0  0  0  0  0  0
  -13.1723   24.2705   51.7845 N   0  0  0  0  0  0  0  0  0  0  0  0
  -12.3246   22.2985   52.6645 C   0  0  0  0  0  0  0  0  0  0  0  0
  -12.9112   22.0940   51.3558 N   0  0  0  0  0  0  0  0  0  0  0  0
  -14.2344   23.5063   49.6773 C   0  0  0  0  0  0  0  0  0  0  0  0
  7  1  1  0
  1  9  1  0
  1 10  2  0
  9  2  2  0
  2 13  1  0
  3 22  1  6
  3 23  1  0
  3 24  1  0
 23  4  2  0
  4 25  1  0
  4 26  1  0
 20  5  1  0
  7  6  2  0
  7  8  2  0
  7 14  1  1
 10 11  1  0
 10 12  1  0
 12 13  2  0
 15 14  1  0
 16 14  1  0
 22 15  2  0
 16 17  2  0
 18 16  1  0
 17 21  1  0
 19 18  2  0
 18 22  1  0
 19 20  1  0
 20 21  2  0
 24 25  1  0
M  END
$$$$
