
     RDKit          3D

 26 29  0  0  0  0  0  0  0  0999 V2000
   -8.2295   28.7537   50.8335 C   0  0  0  0  0  0  0  0  0  0  0  0
   -6.9439   30.2201   52.2607 C   0  0  0  0  0  0  0  0  0  0  0  0
  -12.6122   24.3267   51.7967 C   0  0  1  0  0  0  0  0  0  0  0  0
  -12.7849   22.5022   53.0956 C   0  0  0  0  0  0  0  0  0  0  0  0
   -8.8797   23.2956   55.7158 C   0  0  0  0  0  0  0  0  0  0  0  0
   -9.0796   27.5165   48.6778 O   0  0  0  0  0  0  0  0  0  0  0  0
   -8.5291   27.2229   50.0534 S   0  0  1  0  0  6  0  0  0  0  0  0
   -7.1882   26.5407   49.9004 O   0  0  0  0  0  0  0  0  0  0  0  0
   -7.1458   28.9811   51.6508 C   0  0  0  0  0  0  0  0  0  0  0  0
   -9.1160   29.7895   50.6326 C   0  0  0  0  0  0  0  0  0  0  0  0
  -10.5125   29.5560   49.6023 Cl  0  0  0  0  0  0  0  0  0  0  0  0
   -8.9345   31.0321   51.2302 C   0  0  0  0  0  0  0  0  0  0  0  0
   -7.8450   31.2417   52.0444 C   0  0  0  0  0  0  0  0  0  0  0  0
   -9.5563   26.1911   50.9413 N   0  0  0  0  0  0  0  0  0  0  0  0
  -10.8235   25.8266   50.6813 C   0  0  0  0  0  0  0  0  0  0  0  0
   -9.2075   25.5774   52.0866 C   0  0  0  0  0  0  0  0  0  0  0  0
   -8.0155   25.5876   52.8271 C   0  0  0  0  0  0  0  0  0  0  0  0
  -10.2584   24.8222   52.5524 C   0  0  0  0  0  0  0  0  0  0  0  0
  -10.1212   24.0963   53.7278 C   0  0  0  0  0  0  0  0  0  0  0  0
   -8.9567   24.0968   54.4655 C   0  0  0  0  0  0  0  0  0  0  0  0
   -7.9094   24.8572   53.9894 C   0  0  0  0  0  0  0  0  0  0  0  0
  -11.2911   24.9867   51.6464 C   0  0  0  0  0  0  0  0  0  0  0  0
  -12.3917   22.9119   51.9608 N   0  0  0  0  0  0  0  0  0  0  0  0
  -13.3432   24.7359   53.0330 C   0  0  0  0  0  0  0  0  0  0  0  0
  -13.3314   23.5610   53.8803 N   0  0  0  0  0  0  0  0  0  0  0  0
  -12.7129   21.0894   53.6123 C   0  0  0  0  0  0  0  0  0  0  0  0
  7  1  1  0
  1  9  1  0
  1 10  2  0
  9  2  2  0
  2 13  1  0
  3 22  1  1
  3 23  1  0
  3 24  1  0
 23  4  2  0
  4 25  1  0
  4 26  1  0
 20  5  1  0
  7  6  2  0
  7  8  2  0
  7 14  1  1
 10 11  1  0
 10 12  1  0
 12 13  2  0
 15 14  1  0
 16 14  1  0
 22 15  2  0
 16 17  2  0
 18 16  1  0
 17 21  1  0
 19 18  2  0
 18 22  1  0
 19 20  1  0
 20 21  2  0
 24 25  1  0
M  END
$$$$
