
     RDKit          3D

 26 29  0  0  0  0  0  0  0  0999 V2000
   -7.4217   26.9956   51.3307 C   0  0  0  0  0  0  0  0  0  0  0  0
   -5.5972   25.9670   52.5363 C   0  0  0  0  0  0  0  0  0  0  0  0
  -12.8599   24.3961   53.0121 C   0  0  1  0  0  0  0  0  0  0  0  0
  -12.2396   22.2372   53.0255 C   0  0  0  0  0  0  0  0  0  0  0  0
  -13.3482   29.4321   55.1924 C   0  0  0  0  0  0  0  0  0  0  0  0
   -9.1536   28.2856   49.8352 O   0  0  0  0  0  0  0  0  0  0  0  0
   -8.9510   26.9417   50.4943 S   0  0  1  0  0  6  0  0  0  0  0  0
   -8.8219   25.8903   49.4150 O   0  0  0  0  0  0  0  0  0  0  0  0
   -6.8204   25.8811   51.8697 C   0  0  0  0  0  0  0  0  0  0  0  0
   -6.7789   28.2068   51.4682 C   0  0  0  0  0  0  0  0  0  0  0  0
   -7.4985   29.6575   50.8021 Cl  0  0  0  0  0  0  0  0  0  0  0  0
   -5.5598   28.3156   52.1284 C   0  0  0  0  0  0  0  0  0  0  0  0
   -4.9729   27.1905   52.6611 C   0  0  0  0  0  0  0  0  0  0  0  0
  -10.2653   26.5214   51.4963 N   0  0  0  0  0  0  0  0  0  0  0  0
  -10.8884   25.3377   51.6266 C   0  0  0  0  0  0  0  0  0  0  0  0
  -10.8850   27.3754   52.3309 C   0  0  0  0  0  0  0  0  0  0  0  0
  -10.6644   28.7322   52.6133 C   0  0  0  0  0  0  0  0  0  0  0  0
  -11.9037   26.7290   52.9913 C   0  0  0  0  0  0  0  0  0  0  0  0
  -12.6816   27.4209   53.9097 C   0  0  0  0  0  0  0  0  0  0  0  0
  -12.4765   28.7535   54.1971 C   0  0  0  0  0  0  0  0  0  0  0  0
  -11.4525   29.3919   53.5295 C   0  0  0  0  0  0  0  0  0  0  0  0
  -11.8999   25.4229   52.5348 C   0  0  0  0  0  0  0  0  0  0  0  0
  -12.6248   23.1823   52.2714 N   0  0  0  0  0  0  0  0  0  0  0  0
  -12.6533   24.0079   54.4393 C   0  0  0  0  0  0  0  0  0  0  0  0
  -12.1508   22.6502   54.3883 N   0  0  0  0  0  0  0  0  0  0  0  0
  -11.9019   20.8325   52.6002 C   0  0  0  0  0  0  0  0  0  0  0  0
  7  1  1  0
  1  9  1  0
  1 10  2  0
  9  2  2  0
  2 13  1  0
  3 22  1  6
  3 23  1  0
  3 24  1  0
 23  4  2  0
  4 25  1  0
  4 26  1  0
 20  5  1  0
  7  6  2  0
  7  8  2  0
  7 14  1  1
 10 11  1  0
 10 12  1  0
 12 13  2  0
 15 14  1  0
 16 14  1  0
 22 15  2  0
 16 17  2  0
 18 16  1  0
 17 21  1  0
 19 18  2  0
 18 22  1  0
 19 20  1  0
 20 21  2  0
 24 25  1  0
M  END
$$$$
