
     RDKit          3D

 26 29  0  0  0  0  0  0  0  0999 V2000
   -8.1698   27.4203   50.4547 C   0  0  0  0  0  0  0  0  0  0  0  0
   -9.2424   28.9782   48.9504 C   0  0  0  0  0  0  0  0  0  0  0  0
  -12.8462   24.1619   53.2266 C   0  0  1  0  0  0  0  0  0  0  0  0
  -12.5032   21.9440   53.3233 C   0  0  0  0  0  0  0  0  0  0  0  0
  -13.2250   29.2339   55.3442 C   0  0  0  0  0  0  0  0  0  0  0  0
   -7.6207   24.9418   51.1297 O   0  0  0  0  0  0  0  0  0  0  0  0
   -8.1983   26.2107   51.7107 S   0  0  1  0  0  6  0  0  0  0  0  0
   -7.2803   26.6994   52.8087 O   0  0  0  0  0  0  0  0  0  0  0  0
   -9.3072   28.0169   49.9601 C   0  0  0  0  0  0  0  0  0  0  0  0
   -6.9570   27.8005   49.9221 C   0  0  0  0  0  0  0  0  0  0  0  0
   -5.4777   27.0740   50.5136 Cl  0  0  0  0  0  0  0  0  0  0  0  0
   -6.8689   28.7561   48.9157 C   0  0  0  0  0  0  0  0  0  0  0  0
   -8.0168   29.3424   48.4332 C   0  0  0  0  0  0  0  0  0  0  0  0
   -9.7455   25.9554   52.3808 N   0  0  0  0  0  0  0  0  0  0  0  0
  -10.5156   24.8546   52.3424 C   0  0  0  0  0  0  0  0  0  0  0  0
  -10.4343   26.8820   53.0714 C   0  0  0  0  0  0  0  0  0  0  0  0
  -10.1266   28.2048   53.4244 C   0  0  0  0  0  0  0  0  0  0  0  0
  -11.6446   26.3649   53.4709 C   0  0  0  0  0  0  0  0  0  0  0  0
  -12.5242   27.1499   54.2039 C   0  0  0  0  0  0  0  0  0  0  0  0
  -12.2356   28.4506   54.5577 C   0  0  0  0  0  0  0  0  0  0  0  0
  -11.0195   28.9590   54.1523 C   0  0  0  0  0  0  0  0  0  0  0  0
  -11.6898   25.0647   53.0000 C   0  0  0  0  0  0  0  0  0  0  0  0
  -12.5963   22.9272   52.5264 N   0  0  0  0  0  0  0  0  0  0  0  0
  -13.0106   23.7543   54.6539 C   0  0  0  0  0  0  0  0  0  0  0  0
  -12.6729   22.3459   54.6817 N   0  0  0  0  0  0  0  0  0  0  0  0
  -12.2469   20.5081   52.9484 C   0  0  0  0  0  0  0  0  0  0  0  0
  7  1  1  0
  1  9  1  0
  1 10  2  0
  9  2  2  0
  2 13  1  0
  3 22  1  1
  3 23  1  0
  3 24  1  0
 23  4  2  0
  4 25  1  0
  4 26  1  0
 20  5  1  0
  7  6  2  0
  7  8  2  0
  7 14  1  1
 10 11  1  0
 10 12  1  0
 12 13  2  0
 15 14  1  0
 16 14  1  0
 22 15  2  0
 16 17  2  0
 18 16  1  0
 17 21  1  0
 19 18  2  0
 18 22  1  0
 19 20  1  0
 20 21  2  0
 24 25  1  0
M  END
$$$$
