
     RDKit          3D

 26 29  0  0  0  0  0  0  0  0999 V2000
   -9.1771   28.0728   50.5619 C   0  0  0  0  0  0  0  0  0  0  0  0
  -10.2014   30.0330   49.5880 C   0  0  0  0  0  0  0  0  0  0  0  0
  -11.0126   25.2234   55.5473 C   0  0  1  0  0  0  0  0  0  0  0  0
   -9.5796   26.2202   56.9611 C   0  0  0  0  0  0  0  0  0  0  0  0
  -14.1970   22.0703   52.3425 C   0  0  0  0  0  0  0  0  0  0  0  0
   -9.3919   25.7005   49.4545 O   0  0  0  0  0  0  0  0  0  0  0  0
   -9.0177   26.3483   50.7667 S   0  0  1  0  0  6  0  0  0  0  0  0
   -7.5558   26.0740   51.0399 O   0  0  0  0  0  0  0  0  0  0  0  0
  -10.1090   28.6475   49.7278 C   0  0  0  0  0  0  0  0  0  0  0  0
   -8.3321   28.9084   51.2597 C   0  0  0  0  0  0  0  0  0  0  0  0
   -7.1272   28.2315   52.3349 Cl  0  0  0  0  0  0  0  0  0  0  0  0
   -8.4065   30.2915   51.1355 C   0  0  0  0  0  0  0  0  0  0  0  0
   -9.3446   30.8488   50.2969 C   0  0  0  0  0  0  0  0  0  0  0  0
   -9.9308   25.7255   52.0653 N   0  0  0  0  0  0  0  0  0  0  0  0
   -9.8225   25.9840   53.3798 C   0  0  0  0  0  0  0  0  0  0  0  0
  -10.9339   24.8391   51.9298 C   0  0  0  0  0  0  0  0  0  0  0  0
  -11.4880   24.2203   50.7988 C   0  0  0  0  0  0  0  0  0  0  0  0
  -11.4614   24.5362   53.1633 C   0  0  0  0  0  0  0  0  0  0  0  0
  -12.5151   23.6379   53.2635 C   0  0  0  0  0  0  0  0  0  0  0  0
  -13.0694   23.0224   52.1616 C   0  0  0  0  0  0  0  0  0  0  0  0
  -12.5330   23.3334   50.9297 C   0  0  0  0  0  0  0  0  0  0  0  0
  -10.7439   25.2739   54.0882 C   0  0  0  0  0  0  0  0  0  0  0  0
   -9.7472   25.1921   56.2364 N   0  0  0  0  0  0  0  0  0  0  0  0
  -11.6909   26.4475   56.0688 C   0  0  0  0  0  0  0  0  0  0  0  0
  -10.6926   27.1094   56.8837 N   0  0  0  0  0  0  0  0  0  0  0  0
   -8.3805   26.5254   57.8196 C   0  0  0  0  0  0  0  0  0  0  0  0
  7  1  1  0
  1  9  1  0
  1 10  2  0
  9  2  2  0
  2 13  1  0
  3 22  1  6
  3 23  1  0
  3 24  1  0
 23  4  2  0
  4 25  1  0
  4 26  1  0
 20  5  1  0
  7  6  2  0
  7  8  2  0
  7 14  1  1
 10 11  1  0
 10 12  1  0
 12 13  2  0
 15 14  1  0
 16 14  1  0
 22 15  2  0
 16 17  2  0
 18 16  1  0
 17 21  1  0
 19 18  2  0
 18 22  1  0
 19 20  1  0
 20 21  2  0
 24 25  1  0
M  END
$$$$
