
     RDKit          3D

 26 29  0  0  0  0  0  0  0  0999 V2000
   -8.6315   25.7984   55.9087 C   0  0  0  0  0  0  0  0  0  0  0  0
   -9.9867   27.0502   57.4696 C   0  0  0  0  0  0  0  0  0  0  0  0
  -11.5282   27.0314   50.5854 C   0  0  1  0  0  0  0  0  0  0  0  0
  -10.3565   28.7334   49.7044 C   0  0  0  0  0  0  0  0  0  0  0  0
  -14.1361   22.3513   51.8699 C   0  0  0  0  0  0  0  0  0  0  0  0
   -7.0063   25.6886   53.8478 O   0  0  0  0  0  0  0  0  0  0  0  0
   -8.3135   25.1115   54.3375 S   0  0  1  0  0  6  0  0  0  0  0  0
   -8.1379   23.6230   54.5388 O   0  0  0  0  0  0  0  0  0  0  0  0
   -9.7716   26.5123   56.1999 C   0  0  0  0  0  0  0  0  0  0  0  0
   -7.7019   25.6282   56.9116 C   0  0  0  0  0  0  0  0  0  0  0  0
   -6.2329   24.7286   56.5968 Cl  0  0  0  0  0  0  0  0  0  0  0  0
   -7.8955   26.1554   58.1838 C   0  0  0  0  0  0  0  0  0  0  0  0
   -9.0416   26.8665   58.4572 C   0  0  0  0  0  0  0  0  0  0  0  0
   -9.5746   25.3547   53.2157 N   0  0  0  0  0  0  0  0  0  0  0  0
   -9.7665   26.3755   52.3627 C   0  0  0  0  0  0  0  0  0  0  0  0
  -10.6020   24.5050   53.0348 C   0  0  0  0  0  0  0  0  0  0  0  0
  -10.9207   23.2809   53.6424 C   0  0  0  0  0  0  0  0  0  0  0  0
  -11.4464   24.9907   52.0639 C   0  0  0  0  0  0  0  0  0  0  0  0
  -12.5799   24.2716   51.7099 C   0  0  0  0  0  0  0  0  0  0  0  0
  -12.9057   23.0682   52.2981 C   0  0  0  0  0  0  0  0  0  0  0  0
  -12.0522   22.5903   53.2702 C   0  0  0  0  0  0  0  0  0  0  0  0
  -10.9044   26.1902   51.6375 C   0  0  0  0  0  0  0  0  0  0  0  0
  -11.0212   28.3734   50.7236 N   0  0  0  0  0  0  0  0  0  0  0  0
  -11.1453   26.6292   49.1990 C   0  0  0  0  0  0  0  0  0  0  0  0
  -10.3036   27.7051   48.7168 N   0  0  0  0  0  0  0  0  0  0  0  0
   -9.6822   30.0642   49.4988 C   0  0  0  0  0  0  0  0  0  0  0  0
  7  1  1  0
  1  9  1  0
  1 10  2  0
  9  2  2  0
  2 13  1  0
  3 22  1  1
  3 23  1  0
  3 24  1  0
 23  4  2  0
  4 25  1  0
  4 26  1  0
 20  5  1  0
  7  6  2  0
  7  8  2  0
  7 14  1  6
 10 11  1  0
 10 12  1  0
 12 13  2  0
 15 14  1  0
 16 14  1  0
 22 15  2  0
 16 17  2  0
 18 16  1  0
 17 21  1  0
 19 18  2  0
 18 22  1  0
 19 20  1  0
 20 21  2  0
 24 25  1  0
M  END
$$$$
