
     RDKit          3D

 26 29  0  0  0  0  0  0  0  0999 V2000
   -7.6662   27.3047   50.3975 C   0  0  0  0  0  0  0  0  0  0  0  0
   -8.1703   28.2718   48.2410 C   0  0  0  0  0  0  0  0  0  0  0  0
  -12.6985   24.7587   52.2684 C   0  0  1  0  0  0  0  0  0  0  0  0
  -13.1669   22.7135   51.4659 C   0  0  0  0  0  0  0  0  0  0  0  0
   -9.9866   21.8308   56.0667 C   0  0  0  0  0  0  0  0  0  0  0  0
   -6.6649   26.5788   52.7150 O   0  0  0  0  0  0  0  0  0  0  0  0
   -7.9455   27.0999   52.1068 S   0  0  1  0  0  6  0  0  0  0  0  0
   -8.2229   28.4749   52.6720 O   0  0  0  0  0  0  0  0  0  0  0  0
   -8.4232   28.1392   49.6071 C   0  0  0  0  0  0  0  0  0  0  0  0
   -6.6449   26.5988   49.7992 C   0  0  0  0  0  0  0  0  0  0  0  0
   -5.6500   25.5223   50.7570 Cl  0  0  0  0  0  0  0  0  0  0  0  0
   -6.3753   26.7156   48.4400 C   0  0  0  0  0  0  0  0  0  0  0  0
   -7.1425   27.5550   47.6649 C   0  0  0  0  0  0  0  0  0  0  0  0
   -9.2749   26.0947   52.4679 N   0  0  0  0  0  0  0  0  0  0  0  0
  -10.5128   26.1043   51.9447 C   0  0  0  0  0  0  0  0  0  0  0  0
   -9.2518   25.1072   53.3814 C   0  0  0  0  0  0  0  0  0  0  0  0
   -8.2346   24.6405   54.2280 C   0  0  0  0  0  0  0  0  0  0  0  0
  -10.4799   24.4904   53.4358 C   0  0  0  0  0  0  0  0  0  0  0  0
  -10.6858   23.4349   54.3137 C   0  0  0  0  0  0  0  0  0  0  0  0
   -9.6962   22.9659   55.1511 C   0  0  0  0  0  0  0  0  0  0  0  0
   -8.4687   23.5914   55.0883 C   0  0  0  0  0  0  0  0  0  0  0  0
  -11.2834   25.1349   52.5119 C   0  0  0  0  0  0  0  0  0  0  0  0
  -12.7376   23.8625   51.1404 N   0  0  0  0  0  0  0  0  0  0  0  0
  -13.3061   23.9771   53.3866 C   0  0  0  0  0  0  0  0  0  0  0  0
  -13.4866   22.6419   52.8545 N   0  0  0  0  0  0  0  0  0  0  0  0
  -13.3414   21.5301   50.5511 C   0  0  0  0  0  0  0  0  0  0  0  0
  7  1  1  0
  1  9  1  0
  1 10  2  0
  9  2  2  0
  2 13  1  0
  3 22  1  1
  3 23  1  0
  3 24  1  0
 23  4  2  0
  4 25  1  0
  4 26  1  0
 20  5  1  0
  7  6  2  0
  7  8  2  0
  7 14  1  6
 10 11  1  0
 10 12  1  0
 12 13  2  0
 15 14  1  0
 16 14  1  0
 22 15  2  0
 16 17  2  0
 18 16  1  0
 17 21  1  0
 19 18  2  0
 18 22  1  0
 19 20  1  0
 20 21  2  0
 24 25  1  0
M  END
$$$$
