
     RDKit          3D

 26 29  0  0  0  0  0  0  0  0999 V2000
   -9.0472   27.8879   51.6248 C   0  0  0  0  0  0  0  0  0  0  0  0
   -7.0871   29.0493   52.4307 C   0  0  0  0  0  0  0  0  0  0  0  0
  -10.4318   23.5365   55.3081 C   0  0  1  0  0  0  0  0  0  0  0  0
   -8.6575   22.2164   55.7017 C   0  0  0  0  0  0  0  0  0  0  0  0
  -14.5705   21.6219   52.2163 C   0  0  0  0  0  0  0  0  0  0  0  0
  -10.9986   27.0068   50.1031 O   0  0  0  0  0  0  0  0  0  0  0  0
   -9.8558   26.4981   50.9496 S   0  0  1  0  0  6  0  0  0  0  0  0
   -8.8578   25.8076   50.0473 O   0  0  0  0  0  0  0  0  0  0  0  0
   -7.6961   27.9182   51.8852 C   0  0  0  0  0  0  0  0  0  0  0  0
   -9.7874   29.0124   51.9196 C   0  0  0  0  0  0  0  0  0  0  0  0
  -11.5105   29.0293   51.6090 Cl  0  0  0  0  0  0  0  0  0  0  0  0
   -9.2015   30.1502   52.4636 C   0  0  0  0  0  0  0  0  0  0  0  0
   -7.8489   30.1628   52.7173 C   0  0  0  0  0  0  0  0  0  0  0  0
  -10.3836   25.3767   52.1209 N   0  0  0  0  0  0  0  0  0  0  0  0
   -9.8846   25.1291   53.3441 C   0  0  0  0  0  0  0  0  0  0  0  0
  -11.4277   24.5443   51.9566 C   0  0  0  0  0  0  0  0  0  0  0  0
  -12.3181   24.3615   50.8875 C   0  0  0  0  0  0  0  0  0  0  0  0
  -11.5892   23.7676   53.0801 C   0  0  0  0  0  0  0  0  0  0  0  0
  -12.6138   22.8324   53.1332 C   0  0  0  0  0  0  0  0  0  0  0  0
  -13.4958   22.6418   52.0910 C   0  0  0  0  0  0  0  0  0  0  0  0
  -13.3250   23.4260   50.9695 C   0  0  0  0  0  0  0  0  0  0  0  0
  -10.5963   24.1480   53.9655 C   0  0  0  0  0  0  0  0  0  0  0  0
   -9.7962   22.2537   55.1428 N   0  0  0  0  0  0  0  0  0  0  0  0
   -9.5065   24.2990   56.1985 C   0  0  0  0  0  0  0  0  0  0  0  0
   -8.3364   23.4554   56.3318 N   0  0  0  0  0  0  0  0  0  0  0  0
   -7.7130   21.0437   55.7334 C   0  0  0  0  0  0  0  0  0  0  0  0
  7  1  1  0
  1  9  1  0
  1 10  2  0
  9  2  2  0
  2 13  1  0
  3 22  1  6
  3 23  1  0
  3 24  1  0
 23  4  2  0
  4 25  1  0
  4 26  1  0
 20  5  1  0
  7  6  2  0
  7  8  2  0
  7 14  1  1
 10 11  1  0
 10 12  1  0
 12 13  2  0
 15 14  1  0
 16 14  1  0
 22 15  2  0
 16 17  2  0
 18 16  1  0
 17 21  1  0
 19 18  2  0
 18 22  1  0
 19 20  1  0
 20 21  2  0
 24 25  1  0
M  END
$$$$
