
     RDKit          3D

 26 29  0  0  0  0  0  0  0  0999 V2000
   -8.3028   26.7833   50.5785 C   0  0  0  0  0  0  0  0  0  0  0  0
   -7.6318   26.8185   48.2571 C   0  0  0  0  0  0  0  0  0  0  0  0
  -10.3540   22.8080   54.9079 C   0  0  1  0  0  0  0  0  0  0  0  0
   -9.1555   23.2165   56.7632 C   0  0  0  0  0  0  0  0  0  0  0  0
  -14.2479   22.1571   51.0650 C   0  0  0  0  0  0  0  0  0  0  0  0
   -8.7765   27.9216   52.8980 O   0  0  0  0  0  0  0  0  0  0  0  0
   -9.4511   27.0523   51.8632 S   0  0  1  0  0  6  0  0  0  0  0  0
  -10.6049   27.8242   51.2634 O   0  0  0  0  0  0  0  0  0  0  0  0
   -8.5771   27.0523   49.2570 C   0  0  0  0  0  0  0  0  0  0  0  0
   -7.0610   26.2731   50.8898 C   0  0  0  0  0  0  0  0  0  0  0  0
   -6.6580   25.9121   52.5551 Cl  0  0  0  0  0  0  0  0  0  0  0  0
   -6.1040   26.0323   49.9099 C   0  0  0  0  0  0  0  0  0  0  0  0
   -6.3957   26.3074   48.5933 C   0  0  0  0  0  0  0  0  0  0  0  0
  -10.0656   25.6149   52.5447 N   0  0  0  0  0  0  0  0  0  0  0  0
   -9.6603   24.9560   53.6437 C   0  0  0  0  0  0  0  0  0  0  0  0
  -11.0944   24.9141   52.0344 C   0  0  0  0  0  0  0  0  0  0  0  0
  -11.9017   25.1261   50.9064 C   0  0  0  0  0  0  0  0  0  0  0  0
  -11.3402   23.8078   52.8138 C   0  0  0  0  0  0  0  0  0  0  0  0
  -12.3660   22.9362   52.4742 C   0  0  0  0  0  0  0  0  0  0  0  0
  -13.1668   23.1316   51.3693 C   0  0  0  0  0  0  0  0  0  0  0  0
  -12.9119   24.2439   50.5949 C   0  0  0  0  0  0  0  0  0  0  0  0
  -10.4169   23.8412   53.8438 C   0  0  0  0  0  0  0  0  0  0  0  0
   -9.0616   22.8921   55.5400 N   0  0  0  0  0  0  0  0  0  0  0  0
  -11.3272   23.0380   56.0171 C   0  0  0  0  0  0  0  0  0  0  0  0
  -10.5135   23.4041   57.1583 N   0  0  0  0  0  0  0  0  0  0  0  0
   -8.0167   23.3978   57.7320 C   0  0  0  0  0  0  0  0  0  0  0  0
  7  1  1  0
  1  9  1  0
  1 10  2  0
  9  2  2  0
  2 13  1  0
  3 22  1  6
  3 23  1  0
  3 24  1  0
 23  4  2  0
  4 25  1  0
  4 26  1  0
 20  5  1  0
  7  6  2  0
  7  8  2  0
  7 14  1  1
 10 11  1  0
 10 12  1  0
 12 13  2  0
 15 14  1  0
 16 14  1  0
 22 15  2  0
 16 17  2  0
 18 16  1  0
 17 21  1  0
 19 18  2  0
 18 22  1  0
 19 20  1  0
 20 21  2  0
 24 25  1  0
M  END
$$$$
