
     RDKit          3D

 26 29  0  0  0  0  0  0  0  0999 V2000
   -7.3349   26.4617   50.5322 C   0  0  0  0  0  0  0  0  0  0  0  0
   -5.8644   25.5127   52.1987 C   0  0  0  0  0  0  0  0  0  0  0  0
  -12.8701   24.0220   51.9635 C   0  0  1  0  0  0  0  0  0  0  0  0
  -12.2583   22.1605   53.0618 C   0  0  0  0  0  0  0  0  0  0  0  0
  -12.8297   28.3092   55.4235 C   0  0  0  0  0  0  0  0  0  0  0  0
   -8.9476   28.4004   49.7968 O   0  0  0  0  0  0  0  0  0  0  0  0
   -8.9105   26.8957   49.9234 S   0  0  1  0  0  6  0  0  0  0  0  0
   -9.0261   26.2929   48.5413 O   0  0  0  0  0  0  0  0  0  0  0  0
   -7.1431   25.8396   51.7448 C   0  0  0  0  0  0  0  0  0  0  0  0
   -6.2225   26.7553   49.7735 C   0  0  0  0  0  0  0  0  0  0  0  0
   -6.4078   27.5466   48.2225 Cl  0  0  0  0  0  0  0  0  0  0  0  0
   -4.9394   26.4388   50.2062 C   0  0  0  0  0  0  0  0  0  0  0  0
   -4.7663   25.8166   51.4215 C   0  0  0  0  0  0  0  0  0  0  0  0
  -10.1981   26.3066   50.8736 N   0  0  0  0  0  0  0  0  0  0  0  0
  -10.9069   25.1733   50.7332 C   0  0  0  0  0  0  0  0  0  0  0  0
  -10.7003   26.9430   51.9473 C   0  0  0  0  0  0  0  0  0  0  0  0
  -10.3555   28.1574   52.5600 C   0  0  0  0  0  0  0  0  0  0  0  0
  -11.7306   26.2093   52.4875 C   0  0  0  0  0  0  0  0  0  0  0  0
  -12.3988   26.6776   53.6106 C   0  0  0  0  0  0  0  0  0  0  0  0
  -12.0712   27.8684   54.2229 C   0  0  0  0  0  0  0  0  0  0  0  0
  -11.0366   28.5960   53.6733 C   0  0  0  0  0  0  0  0  0  0  0  0
  -11.8574   25.0760   51.7039 C   0  0  0  0  0  0  0  0  0  0  0  0
  -12.2053   22.7436   51.9359 N   0  0  0  0  0  0  0  0  0  0  0  0
  -13.4719   24.0999   53.3280 C   0  0  0  0  0  0  0  0  0  0  0  0
  -12.9608   22.9396   54.0287 N   0  0  0  0  0  0  0  0  0  0  0  0
  -11.6741   20.8148   53.4021 C   0  0  0  0  0  0  0  0  0  0  0  0
  7  1  1  0
  1  9  1  0
  1 10  2  0
  9  2  2  0
  2 13  1  0
  3 22  1  1
  3 23  1  0
  3 24  1  0
 23  4  2  0
  4 25  1  0
  4 26  1  0
 20  5  1  0
  7  6  2  0
  7  8  2  0
  7 14  1  1
 10 11  1  0
 10 12  1  0
 12 13  2  0
 15 14  1  0
 16 14  1  0
 22 15  2  0
 16 17  2  0
 18 16  1  0
 17 21  1  0
 19 18  2  0
 18 22  1  0
 19 20  1  0
 20 21  2  0
 24 25  1  0
M  END
$$$$
