
     RDKit          3D

 26 29  0  0  0  0  0  0  0  0999 V2000
   -9.3709   28.1632   50.9944 C   0  0  0  0  0  0  0  0  0  0  0  0
  -10.2678   29.9404   49.6241 C   0  0  0  0  0  0  0  0  0  0  0  0
  -11.2770   24.4749   55.5283 C   0  0  1  0  0  0  0  0  0  0  0  0
  -10.0854   22.9410   56.6567 C   0  0  0  0  0  0  0  0  0  0  0  0
  -14.1933   22.1168   51.4924 C   0  0  0  0  0  0  0  0  0  0  0  0
   -8.7860   25.8427   49.9112 O   0  0  0  0  0  0  0  0  0  0  0  0
   -8.8790   26.5117   51.2622 S   0  0  1  0  0  6  0  0  0  0  0  0
   -7.4958   26.5611   51.8716 O   0  0  0  0  0  0  0  0  0  0  0  0
   -9.8900   28.6084   49.8000 C   0  0  0  0  0  0  0  0  0  0  0  0
   -9.2332   29.0747   52.0188 C   0  0  0  0  0  0  0  0  0  0  0  0
   -8.5781   28.5634   53.5600 Cl  0  0  0  0  0  0  0  0  0  0  0  0
   -9.6030   30.4065   51.8656 C   0  0  0  0  0  0  0  0  0  0  0  0
  -10.1205   30.8341   50.6642 C   0  0  0  0  0  0  0  0  0  0  0  0
   -9.9017   25.6561   52.3252 N   0  0  0  0  0  0  0  0  0  0  0  0
   -9.9039   25.6372   53.6691 C   0  0  0  0  0  0  0  0  0  0  0  0
  -10.8938   24.8387   51.9282 C   0  0  0  0  0  0  0  0  0  0  0  0
  -11.3531   24.4773   50.6524 C   0  0  0  0  0  0  0  0  0  0  0  0
  -11.5254   24.3011   53.0253 C   0  0  0  0  0  0  0  0  0  0  0  0
  -12.5880   23.4248   52.8515 C   0  0  0  0  0  0  0  0  0  0  0  0
  -13.0498   23.0607   51.6047 C   0  0  0  0  0  0  0  0  0  0  0  0
  -12.4096   23.6058   50.5116 C   0  0  0  0  0  0  0  0  0  0  0  0
  -10.8854   24.8174   54.1380 C   0  0  0  0  0  0  0  0  0  0  0  0
  -10.9652   23.0860   55.7537 N   0  0  0  0  0  0  0  0  0  0  0  0
  -10.4891   25.2068   56.5646 C   0  0  0  0  0  0  0  0  0  0  0  0
   -9.6598   24.1952   57.1871 N   0  0  0  0  0  0  0  0  0  0  0  0
   -9.5179   21.6375   57.1535 C   0  0  0  0  0  0  0  0  0  0  0  0
  7  1  1  0
  1  9  1  0
  1 10  2  0
  9  2  2  0
  2 13  1  0
  3 22  1  6
  3 23  1  0
  3 24  1  0
 23  4  2  0
  4 25  1  0
  4 26  1  0
 20  5  1  0
  7  6  2  0
  7  8  2  0
  7 14  1  1
 10 11  1  0
 10 12  1  0
 12 13  2  0
 15 14  1  0
 16 14  1  0
 22 15  2  0
 16 17  2  0
 18 16  1  0
 17 21  1  0
 19 18  2  0
 18 22  1  0
 19 20  1  0
 20 21  2  0
 24 25  1  0
M  END
$$$$
