
     RDKit          3D

 26 29  0  0  0  0  0  0  0  0999 V2000
   -8.2607   28.1788   50.5881 C   0  0  0  0  0  0  0  0  0  0  0  0
   -8.5457   30.5772   50.6699 C   0  0  0  0  0  0  0  0  0  0  0  0
  -12.3429   23.3925   51.4651 C   0  0  1  0  0  0  0  0  0  0  0  0
  -12.5609   21.7977   53.0319 C   0  0  0  0  0  0  0  0  0  0  0  0
  -13.9616   27.3402   54.9506 C   0  0  0  0  0  0  0  0  0  0  0  0
   -7.2753   25.7486   50.4341 O   0  0  0  0  0  0  0  0  0  0  0  0
   -8.1308   26.6080   51.3347 S   0  0  1  0  0  6  0  0  0  0  0  0
   -7.4028   26.8061   52.6453 O   0  0  0  0  0  0  0  0  0  0  0  0
   -8.4417   29.3391   51.3057 C   0  0  0  0  0  0  0  0  0  0  0  0
   -8.1846   28.2732   49.2154 C   0  0  0  0  0  0  0  0  0  0  0  0
   -7.9551   26.8289   48.2524 Cl  0  0  0  0  0  0  0  0  0  0  0  0
   -8.2858   29.4961   48.5610 C   0  0  0  0  0  0  0  0  0  0  0  0
   -8.4665   30.6463   49.2946 C   0  0  0  0  0  0  0  0  0  0  0  0
   -9.6370   25.8795   51.6640 N   0  0  0  0  0  0  0  0  0  0  0  0
  -10.1497   24.7349   51.1809 C   0  0  0  0  0  0  0  0  0  0  0  0
  -10.5606   26.3922   52.4971 C   0  0  0  0  0  0  0  0  0  0  0  0
  -10.5709   27.5586   53.2774 C   0  0  0  0  0  0  0  0  0  0  0  0
  -11.6613   25.5686   52.5406 C   0  0  0  0  0  0  0  0  0  0  0  0
  -12.7439   25.9025   53.3429 C   0  0  0  0  0  0  0  0  0  0  0  0
  -12.7682   27.0446   54.1144 C   0  0  0  0  0  0  0  0  0  0  0  0
  -11.6594   27.8632   54.0635 C   0  0  0  0  0  0  0  0  0  0  0  0
  -11.3907   24.5081   51.6942 C   0  0  0  0  0  0  0  0  0  0  0  0
  -11.8107   22.2108   52.0954 N   0  0  0  0  0  0  0  0  0  0  0  0
  -13.6689   23.5995   52.1203 C   0  0  0  0  0  0  0  0  0  0  0  0
  -13.7140   22.6229   53.1893 N   0  0  0  0  0  0  0  0  0  0  0  0
  -12.3228   20.5946   53.9059 C   0  0  0  0  0  0  0  0  0  0  0  0
  7  1  1  0
  1  9  1  0
  1 10  2  0
  9  2  2  0
  2 13  1  0
  3 22  1  1
  3 23  1  0
  3 24  1  0
 23  4  2  0
  4 25  1  0
  4 26  1  0
 20  5  1  0
  7  6  2  0
  7  8  2  0
  7 14  1  1
 10 11  1  0
 10 12  1  0
 12 13  2  0
 15 14  1  0
 16 14  1  0
 22 15  2  0
 16 17  2  0
 18 16  1  0
 17 21  1  0
 19 18  2  0
 18 22  1  0
 19 20  1  0
 20 21  2  0
 24 25  1  0
M  END
$$$$
