
     RDKit          3D

 26 29  0  0  0  0  0  0  0  0999 V2000
   -7.4628   26.9058   51.0347 C   0  0  0  0  0  0  0  0  0  0  0  0
   -5.6722   26.9660   52.6566 C   0  0  0  0  0  0  0  0  0  0  0  0
  -12.4364   23.9810   53.3682 C   0  0  1  0  0  0  0  0  0  0  0  0
  -13.3768   22.5869   51.8789 C   0  0  0  0  0  0  0  0  0  0  0  0
  -12.5717   28.6135   56.3473 C   0  0  0  0  0  0  0  0  0  0  0  0
   -9.4052   28.5036   50.2768 O   0  0  0  0  0  0  0  0  0  0  0  0
   -9.1381   27.0464   50.5711 S   0  0  1  0  0  6  0  0  0  0  0  0
   -9.3050   26.2579   49.2915 O   0  0  0  0  0  0  0  0  0  0  0  0
   -7.0234   27.0826   52.3269 C   0  0  0  0  0  0  0  0  0  0  0  0
   -6.5260   26.6087   50.0686 C   0  0  0  0  0  0  0  0  0  0  0  0
   -7.0290   26.3737   48.4080 Cl  0  0  0  0  0  0  0  0  0  0  0  0
   -5.1748   26.4879   50.3745 C   0  0  0  0  0  0  0  0  0  0  0  0
   -4.7533   26.6678   51.6722 C   0  0  0  0  0  0  0  0  0  0  0  0
  -10.2239   26.4233   51.7290 N   0  0  0  0  0  0  0  0  0  0  0  0
  -10.7898   25.2058   51.7929 C   0  0  0  0  0  0  0  0  0  0  0  0
  -10.6824   27.1157   52.7875 C   0  0  0  0  0  0  0  0  0  0  0  0
  -10.4331   28.4249   53.2271 C   0  0  0  0  0  0  0  0  0  0  0  0
  -11.5414   26.3330   53.5231 C   0  0  0  0  0  0  0  0  0  0  0  0
  -12.1358   26.8458   54.6681 C   0  0  0  0  0  0  0  0  0  0  0  0
  -11.9006   28.1296   55.1118 C   0  0  0  0  0  0  0  0  0  0  0  0
  -11.0376   28.9056   54.3669 C   0  0  0  0  0  0  0  0  0  0  0  0
  -11.6054   25.1099   52.8795 C   0  0  0  0  0  0  0  0  0  0  0  0
  -13.4780   23.7386   52.4020 N   0  0  0  0  0  0  0  0  0  0  0  0
  -11.6936   22.6879   53.4479 C   0  0  0  0  0  0  0  0  0  0  0  0
  -12.2611   21.8656   52.3990 N   0  0  0  0  0  0  0  0  0  0  0  0
  -14.2862   21.9939   50.8352 C   0  0  0  0  0  0  0  0  0  0  0  0
  7  1  1  0
  1  9  1  0
  1 10  2  0
  9  2  2  0
  2 13  1  0
  3 22  1  6
  3 23  1  0
  3 24  1  0
 23  4  2  0
  4 25  1  0
  4 26  1  0
 20  5  1  0
  7  6  2  0
  7  8  2  0
  7 14  1  1
 10 11  1  0
 10 12  1  0
 12 13  2  0
 15 14  1  0
 16 14  1  0
 22 15  2  0
 16 17  2  0
 18 16  1  0
 17 21  1  0
 19 18  2  0
 18 22  1  0
 19 20  1  0
 20 21  2  0
 24 25  1  0
M  END
$$$$
