
     RDKit          3D

 11 11  0  0  0  0  0  0  0  0999 V2000
  -16.5903   -1.0608  -26.3847 C   0  0  0  0  0  0  0  0  0  0  0  0
  -15.9503   -2.2962  -26.9316 C   0  0  0  0  0  0  0  0  0  0  0  0
  -16.9240   -3.2947  -27.4905 C   0  0  1  0  0  0  0  0  0  0  0  0
  -16.9994   -3.2774  -28.9872 C   0  0  0  0  0  0  0  0  0  0  0  0
  -16.5619   -4.6225  -26.9454 C   0  0  0  0  0  0  0  0  0  0  0  0
  -17.3932   -5.3364  -26.1089 C   0  0  0  0  0  0  0  0  0  0  0  0
  -16.9636   -6.5575  -25.6587 C   0  0  0  0  0  0  0  0  0  0  0  0
  -15.7358   -7.0986  -26.0086 C   0  0  0  0  0  0  0  0  0  0  0  0
  -15.3257   -8.3345  -25.5399 O   0  0  0  0  0  0  0  0  0  0  0  0
  -14.9111   -6.3981  -26.8341 C   0  0  0  0  0  0  0  0  0  0  0  0
  -15.3410   -5.1628  -27.2921 C   0  0  0  0  0  0  0  0  0  0  0  0
  1  2  1  0
  2  3  1  0
  3  4  1  6
  3  5  1  0
  5  6  2  0
  5 11  1  0
  6  7  1  0
  7  8  2  0
  8  9  1  0
  8 10  1  0
 10 11  2  0
M  END
$$$$
