
     RDKit          3D

 11 11  0  0  0  0  0  0  0  0999 V2000
  -17.1526   -1.9624  -25.5988 C   0  0  0  0  0  0  0  0  0  0  0  0
  -16.5766   -2.1954  -26.9585 C   0  0  0  0  0  0  0  0  0  0  0  0
  -17.2510   -3.2947  -27.7296 C   0  0  1  0  0  0  0  0  0  0  0  0
  -16.9711   -3.2463  -29.2012 C   0  0  0  0  0  0  0  0  0  0  0  0
  -16.8579   -4.5796  -27.1085 C   0  0  0  0  0  0  0  0  0  0  0  0
  -17.6834   -5.2764  -26.2520 C   0  0  0  0  0  0  0  0  0  0  0  0
  -17.2243   -6.4575  -25.7300 C   0  0  0  0  0  0  0  0  0  0  0  0
  -15.9725   -6.9750  -26.0270 C   0  0  0  0  0  0  0  0  0  0  0  0
  -15.5329   -8.1705  -25.4861 O   0  0  0  0  0  0  0  0  0  0  0  0
  -15.1535   -6.2912  -26.8720 C   0  0  0  0  0  0  0  0  0  0  0  0
  -15.6132   -5.0963  -27.4025 C   0  0  0  0  0  0  0  0  0  0  0  0
  1  2  1  0
  2  3  1  0
  3  4  1  6
  3  5  1  0
  5  6  2  0
  5 11  1  0
  6  7  1  0
  7  8  2  0
  8  9  1  0
  8 10  1  0
 10 11  2  0
M  END
$$$$
