
     RDKit          3D

 11 11  0  0  0  0  0  0  0  0999 V2000
  -16.7741   -3.3780  -29.9236 C   0  0  0  0  0  0  0  0  0  0  0  0
  -17.5649   -3.1725  -28.6717 C   0  0  0  0  0  0  0  0  0  0  0  0
  -16.7319   -3.1208  -27.4223 C   0  0  1  0  0  0  0  0  0  0  0  0
  -17.3638   -2.3267  -26.3194 C   0  0  0  0  0  0  0  0  0  0  0  0
  -16.4306   -4.5161  -27.0303 C   0  0  0  0  0  0  0  0  0  0  0  0
  -15.2470   -5.1427  -27.3573 C   0  0  0  0  0  0  0  0  0  0  0  0
  -15.0661   -6.4376  -26.9463 C   0  0  0  0  0  0  0  0  0  0  0  0
  -16.0189   -7.1364  -26.2204 C   0  0  0  0  0  0  0  0  0  0  0  0
  -15.8111   -8.4439  -25.8174 O   0  0  0  0  0  0  0  0  0  0  0  0
  -17.1891   -6.5226  -25.8949 C   0  0  0  0  0  0  0  0  0  0  0  0
  -17.3769   -5.2132  -26.3083 C   0  0  0  0  0  0  0  0  0  0  0  0
  1  2  1  0
  2  3  1  0
  3  4  1  1
  3  5  1  0
  5  6  2  0
  5 11  1  0
  6  7  1  0
  7  8  2  0
  8  9  1  0
  8 10  1  0
 10 11  2  0
M  END
$$$$
