
     RDKit          3D

 11 11  0  0  0  0  0  0  0  0999 V2000
  -17.1014   -2.1808  -29.4931 C   0  0  0  0  0  0  0  0  0  0  0  0
  -17.3889   -3.2998  -28.5444 C   0  0  0  0  0  0  0  0  0  0  0  0
  -16.6446   -3.2059  -27.2425 C   0  0  1  0  0  0  0  0  0  0  0  0
  -17.3410   -2.3602  -26.2197 C   0  0  0  0  0  0  0  0  0  0  0  0
  -16.3909   -4.5872  -26.7744 C   0  0  0  0  0  0  0  0  0  0  0  0
  -15.2630   -5.2976  -27.1261 C   0  0  0  0  0  0  0  0  0  0  0  0
  -15.1230   -6.5709  -26.6388 C   0  0  0  0  0  0  0  0  0  0  0  0
  -16.0634   -7.1678  -25.8129 C   0  0  0  0  0  0  0  0  0  0  0  0
  -15.8978   -8.4556  -25.3343 O   0  0  0  0  0  0  0  0  0  0  0  0
  -17.1788   -6.4710  -25.4625 C   0  0  0  0  0  0  0  0  0  0  0  0
  -17.3250   -5.1830  -25.9527 C   0  0  0  0  0  0  0  0  0  0  0  0
  1  2  1  0
  2  3  1  0
  3  4  1  1
  3  5  1  0
  5  6  2  0
  5 11  1  0
  6  7  1  0
  7  8  2  0
  8  9  1  0
  8 10  1  0
 10 11  2  0
M  END
$$$$
