
     RDKit          3D

 11 11  0  0  0  0  0  0  0  0999 V2000
  -16.1399   -1.6384  -25.8299 C   0  0  0  0  0  0  0  0  0  0  0  0
  -16.1520   -2.1658  -27.2287 C   0  0  0  0  0  0  0  0  0  0  0  0
  -17.2449   -3.1610  -27.4990 C   0  0  1  0  0  0  0  0  0  0  0  0
  -17.5980   -3.2759  -28.9510 C   0  0  0  0  0  0  0  0  0  0  0  0
  -16.8306   -4.4502  -26.9011 C   0  0  0  0  0  0  0  0  0  0  0  0
  -17.6028   -5.1273  -25.9814 C   0  0  0  0  0  0  0  0  0  0  0  0
  -17.1281   -6.3144  -25.4879 C   0  0  0  0  0  0  0  0  0  0  0  0
  -15.9116   -6.8568  -25.8740 C   0  0  0  0  0  0  0  0  0  0  0  0
  -15.4552   -8.0579  -25.3601 O   0  0  0  0  0  0  0  0  0  0  0  0
  -15.1453   -6.1926  -26.7816 C   0  0  0  0  0  0  0  0  0  0  0  0
  -15.6210   -4.9917  -27.2836 C   0  0  0  0  0  0  0  0  0  0  0  0
  1  2  1  0
  2  3  1  0
  3  4  1  6
  3  5  1  0
  5  6  2  0
  5 11  1  0
  6  7  1  0
  7  8  2  0
  8  9  1  0
  8 10  1  0
 10 11  2  0
M  END
$$$$
