
     RDKit          3D

 11 11  0  0  0  0  0  0  0  0999 V2000
  -17.0977   -1.6647  -25.8173 C   0  0  0  0  0  0  0  0  0  0  0  0
  -16.5512   -2.1946  -27.1039 C   0  0  0  0  0  0  0  0  0  0  0  0
  -17.3993   -3.2612  -27.7370 C   0  0  1  0  0  0  0  0  0  0  0  0
  -17.3953   -3.2123  -29.2349 C   0  0  0  0  0  0  0  0  0  0  0  0
  -16.9487   -4.5650  -27.2000 C   0  0  0  0  0  0  0  0  0  0  0  0
  -17.6933   -5.2977  -26.3005 C   0  0  0  0  0  0  0  0  0  0  0  0
  -17.1861   -6.4938  -25.8642 C   0  0  0  0  0  0  0  0  0  0  0  0
  -15.9633   -6.9918  -26.2885 C   0  0  0  0  0  0  0  0  0  0  0  0
  -15.4737   -8.2031  -25.8322 O   0  0  0  0  0  0  0  0  0  0  0  0
  -15.2241   -6.2725  -27.1764 C   0  0  0  0  0  0  0  0  0  0  0  0
  -15.7328   -5.0623  -27.6206 C   0  0  0  0  0  0  0  0  0  0  0  0
  1  2  1  0
  2  3  1  0
  3  4  1  6
  3  5  1  0
  5  6  2  0
  5 11  1  0
  6  7  1  0
  7  8  2  0
  8  9  1  0
  8 10  1  0
 10 11  2  0
M  END
$$$$
