
     RDKit          3D

 11 11  0  0  0  0  0  0  0  0999 V2000
  -17.1229   -1.8591  -25.6787 C   0  0  0  0  0  0  0  0  0  0  0  0
  -16.6967   -2.1546  -27.0808 C   0  0  0  0  0  0  0  0  0  0  0  0
  -17.4650   -3.2691  -27.7329 C   0  0  1  0  0  0  0  0  0  0  0  0
  -17.4649   -3.1944  -29.2298 C   0  0  0  0  0  0  0  0  0  0  0  0
  -16.9205   -4.5457  -27.2179 C   0  0  0  0  0  0  0  0  0  0  0  0
  -15.6729   -5.0178  -27.5657 C   0  0  0  0  0  0  0  0  0  0  0  0
  -15.2620   -6.2119  -27.0333 C   0  0  0  0  0  0  0  0  0  0  0  0
  -16.0454   -6.9578  -26.1656 C   0  0  0  0  0  0  0  0  0  0  0  0
  -15.6065   -8.1612  -25.6418 O   0  0  0  0  0  0  0  0  0  0  0  0
  -17.2779   -6.4964  -25.8188 C   0  0  0  0  0  0  0  0  0  0  0  0
  -17.6979   -5.2893  -26.3546 C   0  0  0  0  0  0  0  0  0  0  0  0
  1  2  1  0
  2  3  1  0
  3  4  1  6
  3  5  1  0
  5  6  2  0
  5 11  1  0
  6  7  1  0
  7  8  2  0
  8  9  1  0
  8 10  1  0
 10 11  2  0
M  END
$$$$
