
     RDKit          3D

 11 11  0  0  0  0  0  0  0  0999 V2000
  -17.3418   -1.6578  -25.7431 C   0  0  0  0  0  0  0  0  0  0  0  0
  -16.5680   -2.2151  -26.8943 C   0  0  0  0  0  0  0  0  0  0  0  0
  -17.2749   -3.3168  -27.6320 C   0  0  1  0  0  0  0  0  0  0  0  0
  -17.2226   -3.1630  -29.1219 C   0  0  0  0  0  0  0  0  0  0  0  0
  -16.7078   -4.6013  -27.1633 C   0  0  0  0  0  0  0  0  0  0  0  0
  -15.4836   -5.0736  -27.5860 C   0  0  0  0  0  0  0  0  0  0  0  0
  -15.0485   -6.2755  -27.0915 C   0  0  0  0  0  0  0  0  0  0  0  0
  -15.7853   -7.0289  -26.1900 C   0  0  0  0  0  0  0  0  0  0  0  0
  -15.3228   -8.2400  -25.7058 O   0  0  0  0  0  0  0  0  0  0  0  0
  -16.9945   -6.5673  -25.7694 C   0  0  0  0  0  0  0  0  0  0  0  0
  -17.4388   -5.3524  -26.2666 C   0  0  0  0  0  0  0  0  0  0  0  0
  1  2  1  0
  2  3  1  0
  3  4  1  6
  3  5  1  0
  5  6  2  0
  5 11  1  0
  6  7  1  0
  7  8  2  0
  8  9  1  0
  8 10  1  0
 10 11  2  0
M  END
$$$$
