
     RDKit          3D

 11 11  0  0  0  0  0  0  0  0999 V2000
  -15.4124   -2.8144  -29.4433 C   0  0  0  0  0  0  0  0  0  0  0  0
  -16.6906   -3.2489  -28.8012 C   0  0  0  0  0  0  0  0  0  0  0  0
  -16.6506   -3.2553  -27.2992 C   0  0  1  0  0  0  0  0  0  0  0  0
  -17.8650   -2.6424  -26.6700 C   0  0  0  0  0  0  0  0  0  0  0  0
  -16.4176   -4.6515  -26.8662 C   0  0  0  0  0  0  0  0  0  0  0  0
  -17.2747   -5.3219  -26.0198 C   0  0  0  0  0  0  0  0  0  0  0  0
  -16.9679   -6.6136  -25.6793 C   0  0  0  0  0  0  0  0  0  0  0  0
  -15.8386   -7.2671  -26.1488 C   0  0  0  0  0  0  0  0  0  0  0  0
  -15.5518   -8.5724  -25.7894 O   0  0  0  0  0  0  0  0  0  0  0  0
  -14.9890   -6.6099  -26.9846 C   0  0  0  0  0  0  0  0  0  0  0  0
  -15.2949   -5.3037  -27.3319 C   0  0  0  0  0  0  0  0  0  0  0  0
  1  2  1  0
  2  3  1  0
  3  4  1  1
  3  5  1  0
  5  6  2  0
  5 11  1  0
  6  7  1  0
  7  8  2  0
  8  9  1  0
  8 10  1  0
 10 11  2  0
M  END
$$$$
