
     RDKit          3D

 11 11  0  0  0  0  0  0  0  0999 V2000
  -17.1392   -1.9935  -25.4350 C   0  0  0  0  0  0  0  0  0  0  0  0
  -16.6343   -2.1628  -26.8318 C   0  0  0  0  0  0  0  0  0  0  0  0
  -17.3058   -3.2684  -27.5964 C   0  0  1  0  0  0  0  0  0  0  0  0
  -17.1731   -3.1286  -29.0827 C   0  0  0  0  0  0  0  0  0  0  0  0
  -16.7705   -4.5509  -27.0864 C   0  0  0  0  0  0  0  0  0  0  0  0
  -15.5214   -5.0247  -27.4265 C   0  0  0  0  0  0  0  0  0  0  0  0
  -15.1196   -6.2244  -26.8997 C   0  0  0  0  0  0  0  0  0  0  0  0
  -15.9136   -6.9743  -26.0451 C   0  0  0  0  0  0  0  0  0  0  0  0
  -15.4839   -8.1833  -25.5268 O   0  0  0  0  0  0  0  0  0  0  0  0
  -17.1477   -6.5112  -25.7061 C   0  0  0  0  0  0  0  0  0  0  0  0
  -17.5585   -5.2984  -26.2362 C   0  0  0  0  0  0  0  0  0  0  0  0
  1  2  1  0
  2  3  1  0
  3  4  1  6
  3  5  1  0
  5  6  2  0
  5 11  1  0
  6  7  1  0
  7  8  2  0
  8  9  1  0
  8 10  1  0
 10 11  2  0
M  END
$$$$
