
     RDKit          3D

 11 11  0  0  0  0  0  0  0  0999 V2000
  -16.9892   -3.0184  -29.9553 C   0  0  0  0  0  0  0  0  0  0  0  0
  -17.6648   -3.2722  -28.6461 C   0  0  0  0  0  0  0  0  0  0  0  0
  -16.7478   -3.1956  -27.4583 C   0  0  1  0  0  0  0  0  0  0  0  0
  -17.1855   -2.1934  -26.4334 C   0  0  0  0  0  0  0  0  0  0  0  0
  -16.6159   -4.5639  -26.9091 C   0  0  0  0  0  0  0  0  0  0  0  0
  -17.5527   -5.1216  -26.0654 C   0  0  0  0  0  0  0  0  0  0  0  0
  -17.3366   -6.3968  -25.6120 C   0  0  0  0  0  0  0  0  0  0  0  0
  -16.2217   -7.1418  -25.9655 C   0  0  0  0  0  0  0  0  0  0  0  0
  -16.0272   -8.4280  -25.4934 O   0  0  0  0  0  0  0  0  0  0  0  0
  -15.2937   -6.5961  -26.7981 C   0  0  0  0  0  0  0  0  0  0  0  0
  -15.5078   -5.3069  -27.2593 C   0  0  0  0  0  0  0  0  0  0  0  0
  1  2  1  0
  2  3  1  0
  3  4  1  1
  3  5  1  0
  5  6  2  0
  5 11  1  0
  6  7  1  0
  7  8  2  0
  8  9  1  0
  8 10  1  0
 10 11  2  0
M  END
$$$$
