
     RDKit          3D

 11 11  0  0  0  0  0  0  0  0999 V2000
  -17.9401   -3.4969  -29.6787 C   0  0  0  0  0  0  0  0  0  0  0  0
  -17.6255   -2.8372  -28.3746 C   0  0  0  0  0  0  0  0  0  0  0  0
  -16.2228   -3.0740  -27.8907 C   0  0  1  0  0  0  0  0  0  0  0  0
  -15.7320   -2.0149  -26.9506 C   0  0  0  0  0  0  0  0  0  0  0  0
  -16.1775   -4.4327  -27.3051 C   0  0  0  0  0  0  0  0  0  0  0  0
  -17.1748   -4.9270  -26.4916 C   0  0  0  0  0  0  0  0  0  0  0  0
  -17.0370   -6.1988  -26.0000 C   0  0  0  0  0  0  0  0  0  0  0  0
  -15.9429   -7.0014  -26.2862 C   0  0  0  0  0  0  0  0  0  0  0  0
  -15.8281   -8.2829  -25.7766 O   0  0  0  0  0  0  0  0  0  0  0  0
  -14.9555   -6.5185  -27.0888 C   0  0  0  0  0  0  0  0  0  0  0  0
  -15.0903   -5.2329  -27.5884 C   0  0  0  0  0  0  0  0  0  0  0  0
  1  2  1  0
  2  3  1  0
  3  4  1  1
  3  5  1  0
  5  6  2  0
  5 11  1  0
  6  7  1  0
  7  8  2  0
  8  9  1  0
  8 10  1  0
 10 11  2  0
M  END
$$$$
