
     RDKit          3D

 11 11  0  0  0  0  0  0  0  0999 V2000
  -17.2317   -3.4806  -29.9705 C   0  0  0  0  0  0  0  0  0  0  0  0
  -17.6071   -3.1560  -28.5603 C   0  0  0  0  0  0  0  0  0  0  0  0
  -16.4422   -3.1024  -27.6129 C   0  0  1  0  0  0  0  0  0  0  0  0
  -16.5753   -2.0370  -26.5672 C   0  0  0  0  0  0  0  0  0  0  0  0
  -16.2721   -4.4567  -27.0398 C   0  0  0  0  0  0  0  0  0  0  0  0
  -15.1497   -5.2250  -27.2642 C   0  0  0  0  0  0  0  0  0  0  0  0
  -15.0903   -6.4666  -26.6871 C   0  0  0  0  0  0  0  0  0  0  0  0
  -16.1064   -6.9763  -25.8929 C   0  0  0  0  0  0  0  0  0  0  0  0
  -16.0214   -8.2339  -25.3217 O   0  0  0  0  0  0  0  0  0  0  0  0
  -17.2167   -6.2220  -25.6681 C   0  0  0  0  0  0  0  0  0  0  0  0
  -17.2815   -4.9657  -26.2495 C   0  0  0  0  0  0  0  0  0  0  0  0
  1  2  1  0
  2  3  1  0
  3  4  1  1
  3  5  1  0
  5  6  2  0
  5 11  1  0
  6  7  1  0
  7  8  2  0
  8  9  1  0
  8 10  1  0
 10 11  2  0
M  END
$$$$
