
     RDKit          3D

 11 11  0  0  0  0  0  0  0  0999 V2000
  -17.1235   -3.4510  -30.1041 C   0  0  0  0  0  0  0  0  0  0  0  0
  -17.6507   -3.0918  -28.7521 C   0  0  0  0  0  0  0  0  0  0  0  0
  -16.5988   -3.0291  -27.6810 C   0  0  1  0  0  0  0  0  0  0  0  0
  -16.9379   -2.0820  -26.5700 C   0  0  0  0  0  0  0  0  0  0  0  0
  -16.3611   -4.4119  -27.2093 C   0  0  0  0  0  0  0  0  0  0  0  0
  -15.2186   -5.1186  -27.5187 C   0  0  0  0  0  0  0  0  0  0  0  0
  -15.0955   -6.3938  -27.0320 C   0  0  0  0  0  0  0  0  0  0  0  0
  -16.0670   -6.9962  -26.2469 C   0  0  0  0  0  0  0  0  0  0  0  0
  -15.9180   -8.2860  -25.7678 O   0  0  0  0  0  0  0  0  0  0  0  0
  -17.1969   -6.3031  -25.9384 C   0  0  0  0  0  0  0  0  0  0  0  0
  -17.3261   -5.0132  -26.4283 C   0  0  0  0  0  0  0  0  0  0  0  0
  1  2  1  0
  2  3  1  0
  3  4  1  1
  3  5  1  0
  5  6  2  0
  5 11  1  0
  6  7  1  0
  7  8  2  0
  8  9  1  0
  8 10  1  0
 10 11  2  0
M  END
$$$$
