
     RDKit          3D

 32 35  0  0  0  0  0  0  0  0999 V2000
  -20.5303    5.5607   -1.3062 C   0  0  0  0  0  0  0  0  0  0  0  0
  -14.4545    8.7353    0.3839 C   0  0  0  0  0  0  0  0  0  0  0  0
  -10.8574    9.5565    0.9161 C   0  0  0  0  0  0  0  0  0  0  0  0
  -10.6083   10.5564   -0.0020 C   0  0  0  0  0  0  0  0  0  0  0  0
  -11.6706   10.9377   -0.7910 C   0  0  0  0  0  0  0  0  0  0  0  0
  -12.9014   10.3361   -0.6482 C   0  0  0  0  0  0  0  0  0  0  0  0
  -26.8113    9.7743   -2.2315 C   0  0  0  0  0  0  0  0  0  0  0  0
  -25.4812    9.9085   -1.5866 C   0  0  0  0  0  0  0  0  0  0  0  0
  -25.3802   10.3605   -0.2790 C   0  0  0  0  0  0  0  0  0  0  0  0
  -24.1026   10.4704    0.2852 C   0  0  0  0  0  0  0  0  0  0  0  0
  -22.9823   10.1424   -0.4267 C   0  0  0  0  0  0  0  0  0  0  0  0
  -20.2322    8.9929   -0.2690 C   0  0  1  0  0  0  0  0  0  0  0  0
  -19.9197    6.9184   -1.0205 C   0  0  2  0  0  0  0  0  0  0  0  0
  -18.5290    6.7699   -0.4306 C   0  0  1  0  0  0  0  0  0  0  0  0
  -17.9482    8.1907   -0.3854 C   0  0  1  0  0  0  0  0  0  0  0  0
  -15.5863    9.0294   -0.3396 C   0  0  0  0  0  0  0  0  0  0  0  0
  -13.1339    9.3372    0.2752 C   0  0  0  0  0  0  0  0  0  0  0  0
  -12.0767    8.9477    1.0705 C   0  0  0  0  0  0  0  0  0  0  0  0
  -18.9259    8.9596    0.4935 C   0  0  1  0  0  0  0  0  0  0  0  0
  -23.0998    9.6897   -1.7404 C   0  0  0  0  0  0  0  0  0  0  0  0
  -24.3557    9.5769   -2.3097 C   0  0  0  0  0  0  0  0  0  0  0  0
   -9.8284    9.1596    1.7082 F   0  0  0  0  0  0  0  0  0  0  0  0
   -9.3733   11.1070   -0.0913 F   0  0  0  0  0  0  0  0  0  0  0  0
  -11.4438   11.9201   -1.7001 F   0  0  0  0  0  0  0  0  0  0  0  0
  -16.6043    8.2356    0.0766 N   0  0  0  0  0  0  0  0  0  0  0  0
  -14.8078    7.7613    1.2326 N   0  0  0  0  0  0  0  0  0  0  0  0
  -16.0996    7.4674    1.0415 N   0  0  0  0  0  0  0  0  0  0  0  0
  -20.7610    7.6972   -0.2083 O   0  0  0  0  0  0  0  0  0  0  0  0
  -21.7326    5.7614   -1.9488 O   0  0  0  0  0  0  0  0  0  0  0  0
  -18.6666    6.2610    0.8763 O   0  0  0  0  0  0  0  0  0  0  0  0
  -18.4644   10.1680    0.9271 O   0  0  0  0  0  0  0  0  0  0  0  0
  -21.3735   10.2508    0.2747 S   0  0  0  0  0  0  0  0  0  0  0  0
 13  1  1  1
  1 29  1  0
 16  2  2  0
  2 17  1  0
  2 26  1  0
  4  3  2  0
  3 18  1  0
  3 22  1  0
  5  4  1  0
  4 23  1  0
  6  5  2  0
  5 24  1  0
 17  6  1  0
  8  7  1  0
  9  8  2  0
  8 21  1  0
 10  9  1  0
 11 10  2  0
 11 20  1  0
 32 11  1  0
 19 12  1  0
 12 28  1  0
 12 32  1  1
 14 13  1  0
 13 28  1  0
 15 14  1  0
 14 30  1  1
 15 19  1  0
 15 25  1  1
 16 25  1  0
 17 18  2  0
 19 31  1  6
 20 21  2  0
 25 27  1  0
 26 27  2  0
M  END
$$$$
