
     RDKit          3D

 32 35  0  0  0  0  0  0  0  0999 V2000
  -20.1966    5.3893    0.1396 C   0  0  0  0  0  0  0  0  0  0  0  0
  -14.4864    9.1807    0.1898 C   0  0  0  0  0  0  0  0  0  0  0  0
  -11.0627    8.7918   -1.2329 C   0  0  0  0  0  0  0  0  0  0  0  0
  -10.2342    8.9133   -0.1358 C   0  0  0  0  0  0  0  0  0  0  0  0
  -10.8540    9.1262    1.0753 C   0  0  0  0  0  0  0  0  0  0  0  0
  -12.2265    9.2088    1.1555 C   0  0  0  0  0  0  0  0  0  0  0  0
  -26.5850    7.7216   -3.5894 C   0  0  0  0  0  0  0  0  0  0  0  0
  -25.3704    8.2956   -2.9583 C   0  0  0  0  0  0  0  0  0  0  0  0
  -25.3118    8.4683   -1.5830 C   0  0  0  0  0  0  0  0  0  0  0  0
  -24.1438    9.0143   -1.0350 C   0  0  0  0  0  0  0  0  0  0  0  0
  -23.0871    9.3686   -1.8270 C   0  0  0  0  0  0  0  0  0  0  0  0
  -20.3082    8.8394   -0.8747 C   0  0  1  0  0  0  0  0  0  0  0  0
  -19.7401    6.7498   -0.3487 C   0  0  2  0  0  0  0  0  0  0  0  0
  -18.4071    7.1252    0.2726 C   0  0  1  0  0  0  0  0  0  0  0  0
  -17.9618    8.4038   -0.4521 C   0  0  1  0  0  0  0  0  0  0  0  0
  -15.4558    8.4668   -0.4745 C   0  0  0  0  0  0  0  0  0  0  0  0
  -13.0410    9.0851    0.0483 C   0  0  0  0  0  0  0  0  0  0  0  0
  -12.4305    8.8716   -1.1697 C   0  0  0  0  0  0  0  0  0  0  0  0
  -19.0861    9.3933   -0.1757 C   0  0  1  0  0  0  0  0  0  0  0  0
  -23.1610    9.1892   -3.2079 C   0  0  0  0  0  0  0  0  0  0  0  0
  -24.3089    8.6513   -3.7621 C   0  0  0  0  0  0  0  0  0  0  0  0
  -10.4796    8.5812   -2.4410 F   0  0  0  0  0  0  0  0  0  0  0  0
   -8.8902    8.8220   -0.2837 F   0  0  0  0  0  0  0  0  0  0  0  0
  -10.0544    9.2484    2.1657 F   0  0  0  0  0  0  0  0  0  0  0  0
  -16.6796    8.8645   -0.0456 N   0  0  0  0  0  0  0  0  0  0  0  0
  -15.1432   10.0050    1.0163 N   0  0  0  0  0  0  0  0  0  0  0  0
  -16.4589    9.8087    0.8686 N   0  0  0  0  0  0  0  0  0  0  0  0
  -20.7234    7.7288   -0.1288 O   0  0  0  0  0  0  0  0  0  0  0  0
  -21.4511    5.1501   -0.3779 O   0  0  0  0  0  0  0  0  0  0  0  0
  -18.6279    7.3943    1.6382 O   0  0  0  0  0  0  0  0  0  0  0  0
  -18.7788   10.6909   -0.4636 O   0  0  0  0  0  0  0  0  0  0  0  0
  -21.6047   10.0319   -1.1528 S   0  0  0  0  0  0  0  0  0  0  0  0
 13  1  1  1
  1 29  1  0
 16  2  2  0
  2 17  1  0
  2 26  1  0
  4  3  2  0
  3 18  1  0
  3 22  1  0
  5  4  1  0
  4 23  1  0
  6  5  2  0
  5 24  1  0
 17  6  1  0
  8  7  1  0
  9  8  2  0
  8 21  1  0
 10  9  1  0
 11 10  2  0
 11 20  1  0
 32 11  1  0
 19 12  1  0
 12 28  1  0
 12 32  1  1
 14 13  1  0
 13 28  1  0
 15 14  1  0
 14 30  1  1
 15 19  1  0
 15 25  1  1
 16 25  1  0
 17 18  2  0
 19 31  1  6
 20 21  2  0
 25 27  1  0
 26 27  2  0
M  END
$$$$
