
     RDKit          3D

 32 35  0  0  0  0  0  0  0  0999 V2000
  -20.4810    5.2387   -0.2648 C   0  0  0  0  0  0  0  0  0  0  0  0
  -14.4610    8.7791    0.3474 C   0  0  0  0  0  0  0  0  0  0  0  0
  -11.1919    9.5648   -1.2627 C   0  0  0  0  0  0  0  0  0  0  0  0
  -10.2915    9.5238   -0.2175 C   0  0  0  0  0  0  0  0  0  0  0  0
  -10.8110    9.2286    1.0232 C   0  0  0  0  0  0  0  0  0  0  0  0
  -12.1588    8.9921    1.1806 C   0  0  0  0  0  0  0  0  0  0  0  0
  -25.7893    8.5933   -5.2128 C   0  0  0  0  0  0  0  0  0  0  0  0
  -24.6740    8.9237   -4.2909 C   0  0  0  0  0  0  0  0  0  0  0  0
  -24.3634    8.0767   -3.2370 C   0  0  0  0  0  0  0  0  0  0  0  0
  -23.3022    8.4325   -2.3943 C   0  0  0  0  0  0  0  0  0  0  0  0
  -22.5878    9.5801   -2.5992 C   0  0  0  0  0  0  0  0  0  0  0  0
  -20.1135    8.6984   -1.1817 C   0  0  1  0  0  0  0  0  0  0  0  0
  -19.8315    6.5506   -0.6586 C   0  0  2  0  0  0  0  0  0  0  0  0
  -18.5455    6.7690    0.1176 C   0  0  1  0  0  0  0  0  0  0  0  0
  -17.8890    8.0048   -0.5149 C   0  0  1  0  0  0  0  0  0  0  0  0
  -15.4300    8.4872   -0.5836 C   0  0  0  0  0  0  0  0  0  0  0  0
  -13.0461    9.0371    0.1246 C   0  0  0  0  0  0  0  0  0  0  0  0
  -12.5363    9.3319   -1.1223 C   0  0  0  0  0  0  0  0  0  0  0  0
  -18.9271    9.1047   -0.3353 C   0  0  1  0  0  0  0  0  0  0  0  0
  -22.9121   10.4217   -3.6628 C   0  0  0  0  0  0  0  0  0  0  0  0
  -23.9581   10.0823   -4.5023 C   0  0  0  0  0  0  0  0  0  0  0  0
  -10.7084    9.8536   -2.4983 F   0  0  0  0  0  0  0  0  0  0  0  0
   -8.9771    9.7664   -0.4408 F   0  0  0  0  0  0  0  0  0  0  0  0
   -9.9397    9.1841    2.0633 F   0  0  0  0  0  0  0  0  0  0  0  0
  -16.6199    8.3171    0.0448 N   0  0  0  0  0  0  0  0  0  0  0  0
  -15.0841    8.7813    1.5330 N   0  0  0  0  0  0  0  0  0  0  0  0
  -16.3793    8.5031    1.3423 N   0  0  0  0  0  0  0  0  0  0  0  0
  -20.7251    7.6259   -0.5199 O   0  0  0  0  0  0  0  0  0  0  0  0
  -21.4856    4.9724   -1.1696 O   0  0  0  0  0  0  0  0  0  0  0  0
  -18.8902    7.0358    1.4576 O   0  0  0  0  0  0  0  0  0  0  0  0
  -18.4544   10.3665   -0.5485 O   0  0  0  0  0  0  0  0  0  0  0  0
  -21.2375   10.0285   -1.5660 S   0  0  0  0  0  0  0  0  0  0  0  0
 13  1  1  1
  1 29  1  0
 16  2  2  0
  2 17  1  0
  2 26  1  0
  4  3  2  0
  3 18  1  0
  3 22  1  0
  5  4  1  0
  4 23  1  0
  6  5  2  0
  5 24  1  0
 17  6  1  0
  8  7  1  0
  9  8  2  0
  8 21  1  0
 10  9  1  0
 11 10  2  0
 11 20  1  0
 32 11  1  0
 19 12  1  0
 12 28  1  0
 12 32  1  1
 14 13  1  0
 13 28  1  0
 15 14  1  0
 14 30  1  1
 15 19  1  0
 15 25  1  1
 16 25  1  0
 17 18  2  0
 19 31  1  6
 20 21  2  0
 25 27  1  0
 26 27  2  0
M  END
$$$$
