
     RDKit          3D

 32 35  0  0  0  0  0  0  0  0999 V2000
  -20.7394    5.6104   -1.8007 C   0  0  0  0  0  0  0  0  0  0  0  0
  -14.5351    8.7487   -0.2669 C   0  0  0  0  0  0  0  0  0  0  0  0
  -11.9511   11.4356   -0.2495 C   0  0  0  0  0  0  0  0  0  0  0  0
  -10.9967   10.9693    0.6316 C   0  0  0  0  0  0  0  0  0  0  0  0
  -11.2468    9.7443    1.2087 C   0  0  0  0  0  0  0  0  0  0  0  0
  -12.3946    9.0468    0.9034 C   0  0  0  0  0  0  0  0  0  0  0  0
  -26.6463   10.9609   -1.8356 C   0  0  0  0  0  0  0  0  0  0  0  0
  -25.3380   10.7171   -1.1782 C   0  0  0  0  0  0  0  0  0  0  0  0
  -25.2064   10.8667    0.1947 C   0  0  0  0  0  0  0  0  0  0  0  0
  -23.9511   10.6255    0.7681 C   0  0  0  0  0  0  0  0  0  0  0  0
  -22.8815   10.2521    0.0025 C   0  0  0  0  0  0  0  0  0  0  0  0
  -20.2748    8.8185   -0.2395 C   0  0  1  0  0  0  0  0  0  0  0  0
  -20.0930    6.9186   -1.3899 C   0  0  2  0  0  0  0  0  0  0  0  0
  -18.6189    6.7191   -1.0879 C   0  0  1  0  0  0  0  0  0  0  0  0
  -18.0449    8.1301   -0.8937 C   0  0  1  0  0  0  0  0  0  0  0  0
  -15.8276    9.1954   -0.4108 C   0  0  0  0  0  0  0  0  0  0  0  0
  -13.3394    9.5274    0.0197 C   0  0  0  0  0  0  0  0  0  0  0  0
  -13.0988   10.7535   -0.5639 C   0  0  0  0  0  0  0  0  0  0  0  0
  -18.8533    8.6994    0.2648 C   0  0  1  0  0  0  0  0  0  0  0  0
  -23.0294   10.1062   -1.3764 C   0  0  0  0  0  0  0  0  0  0  0  0
  -24.2636   10.3417   -1.9555 C   0  0  0  0  0  0  0  0  0  0  0  0
  -11.7316   12.6414   -0.8342 F   0  0  0  0  0  0  0  0  0  0  0  0
   -9.8887   11.7061    0.8882 F   0  0  0  0  0  0  0  0  0  0  0  0
  -10.3186    9.2699    2.0784 F   0  0  0  0  0  0  0  0  0  0  0  0
  -16.6404    8.1417   -0.6731 N   0  0  0  0  0  0  0  0  0  0  0  0
  -14.5862    7.4223   -0.4455 N   0  0  0  0  0  0  0  0  0  0  0  0
  -15.8533    7.0664   -0.6888 N   0  0  0  0  0  0  0  0  0  0  0  0
  -20.7791    7.5140   -0.3182 O   0  0  0  0  0  0  0  0  0  0  0  0
  -22.0908    5.8327   -1.9529 O   0  0  0  0  0  0  0  0  0  0  0  0
  -18.5194    5.9862    0.1116 O   0  0  0  0  0  0  0  0  0  0  0  0
  -18.3267    9.8296    0.8183 O   0  0  0  0  0  0  0  0  0  0  0  0
  -21.3058    9.9215    0.7095 S   0  0  0  0  0  0  0  0  0  0  0  0
 13  1  1  1
  1 29  1  0
 16  2  2  0
  2 17  1  0
  2 26  1  0
  4  3  2  0
  3 18  1  0
  3 22  1  0
  5  4  1  0
  4 23  1  0
  6  5  2  0
  5 24  1  0
 17  6  1  0
  8  7  1  0
  9  8  2  0
  8 21  1  0
 10  9  1  0
 11 10  2  0
 11 20  1  0
 32 11  1  0
 19 12  1  0
 12 28  1  0
 12 32  1  1
 14 13  1  0
 13 28  1  0
 15 14  1  0
 14 30  1  1
 15 19  1  0
 15 25  1  1
 16 25  1  0
 17 18  2  0
 19 31  1  6
 20 21  2  0
 25 27  1  0
 26 27  2  0
M  END
$$$$
