
     RDKit          3D

 32 35  0  0  0  0  0  0  0  0999 V2000
  -20.3903    5.1017   -0.2752 C   0  0  0  0  0  0  0  0  0  0  0  0
  -14.3218    8.3450   -0.7768 C   0  0  0  0  0  0  0  0  0  0  0  0
  -10.9269    9.6511    0.0390 C   0  0  0  0  0  0  0  0  0  0  0  0
  -10.9149    9.6987    1.4183 C   0  0  0  0  0  0  0  0  0  0  0  0
  -12.0650    9.2847    2.0525 C   0  0  0  0  0  0  0  0  0  0  0  0
  -13.1506    8.8523    1.3234 C   0  0  0  0  0  0  0  0  0  0  0  0
  -26.4131    9.7783   -3.6252 C   0  0  0  0  0  0  0  0  0  0  0  0
  -25.1029    9.8126   -2.9286 C   0  0  0  0  0  0  0  0  0  0  0  0
  -24.6021    8.6690   -2.3237 C   0  0  0  0  0  0  0  0  0  0  0  0
  -23.3614    8.7523   -1.6785 C   0  0  0  0  0  0  0  0  0  0  0  0
  -22.6579    9.9241   -1.6425 C   0  0  0  0  0  0  0  0  0  0  0  0
  -20.0508    8.6004   -1.0424 C   0  0  1  0  0  0  0  0  0  0  0  0
  -19.8139    6.3964   -0.8131 C   0  0  2  0  0  0  0  0  0  0  0  0
  -18.3110    6.4436   -0.6063 C   0  0  1  0  0  0  0  0  0  0  0  0
  -17.8302    7.6863   -1.3698 C   0  0  1  0  0  0  0  0  0  0  0  0
  -15.6373    8.3889   -0.3789 C   0  0  0  0  0  0  0  0  0  0  0  0
  -13.1464    8.8108   -0.0560 C   0  0  0  0  0  0  0  0  0  0  0  0
  -11.9995    9.2233   -0.7012 C   0  0  0  0  0  0  0  0  0  0  0  0
  -18.5913    8.8342   -0.7197 C   0  0  1  0  0  0  0  0  0  0  0  0
  -23.1745   11.0654   -2.2549 C   0  0  0  0  0  0  0  0  0  0  0  0
  -24.3990   10.9970   -2.8953 C   0  0  0  0  0  0  0  0  0  0  0  0
   -9.8063   10.0534   -0.6139 F   0  0  0  0  0  0  0  0  0  0  0  0
   -9.8128   10.1350    2.0752 F   0  0  0  0  0  0  0  0  0  0  0  0
  -12.0712    9.3250    3.4094 F   0  0  0  0  0  0  0  0  0  0  0  0
  -16.4180    7.8495   -1.3481 N   0  0  0  0  0  0  0  0  0  0  0  0
  -14.3269    7.7756   -1.9892 N   0  0  0  0  0  0  0  0  0  0  0  0
  -15.5889    7.4814   -2.3244 N   0  0  0  0  0  0  0  0  0  0  0  0
  -20.4617    7.5137   -0.2598 O   0  0  0  0  0  0  0  0  0  0  0  0
  -21.5594    4.8407   -0.9563 O   0  0  0  0  0  0  0  0  0  0  0  0
  -18.0698    6.5992    0.7733 O   0  0  0  0  0  0  0  0  0  0  0  0
  -18.1105   10.0739   -1.0246 O   0  0  0  0  0  0  0  0  0  0  0  0
  -21.0882   10.0393   -0.8585 S   0  0  0  0  0  0  0  0  0  0  0  0
 13  1  1  1
  1 29  1  0
 16  2  2  0
  2 17  1  0
  2 26  1  0
  4  3  2  0
  3 18  1  0
  3 22  1  0
  5  4  1  0
  4 23  1  0
  6  5  2  0
  5 24  1  0
 17  6  1  0
  8  7  1  0
  9  8  2  0
  8 21  1  0
 10  9  1  0
 11 10  2  0
 11 20  1  0
 32 11  1  0
 19 12  1  0
 12 28  1  0
 12 32  1  1
 14 13  1  0
 13 28  1  0
 15 14  1  0
 14 30  1  1
 15 19  1  0
 15 25  1  1
 16 25  1  0
 17 18  2  0
 19 31  1  6
 20 21  2  0
 25 27  1  0
 26 27  2  0
M  END
$$$$
