
     RDKit          3D

 32 35  0  0  0  0  0  0  0  0999 V2000
  -20.1944    5.2190   -0.0363 C   0  0  0  0  0  0  0  0  0  0  0  0
  -14.2255    8.5744   -0.5184 C   0  0  0  0  0  0  0  0  0  0  0  0
  -11.5852    8.7747    2.1057 C   0  0  0  0  0  0  0  0  0  0  0  0
  -10.7381    9.7626    1.6461 C   0  0  0  0  0  0  0  0  0  0  0  0
  -11.0783   10.3478    0.4469 C   0  0  0  0  0  0  0  0  0  0  0  0
  -12.2077    9.9481   -0.2327 C   0  0  0  0  0  0  0  0  0  0  0  0
  -26.8004    9.2877   -2.1162 C   0  0  0  0  0  0  0  0  0  0  0  0
  -25.3717    9.4825   -1.7643 C   0  0  0  0  0  0  0  0  0  0  0  0
  -24.3810    9.2484   -2.7068 C   0  0  0  0  0  0  0  0  0  0  0  0
  -23.0473    9.4461   -2.3262 C   0  0  0  0  0  0  0  0  0  0  0  0
  -22.7236    9.8587   -1.0635 C   0  0  0  0  0  0  0  0  0  0  0  0
  -19.9741    8.7326   -0.7787 C   0  0  1  0  0  0  0  0  0  0  0  0
  -19.6641    6.5359   -0.5678 C   0  0  2  0  0  0  0  0  0  0  0  0
  -18.1621    6.6305   -0.3700 C   0  0  1  0  0  0  0  0  0  0  0  0
  -17.7271    7.8939   -1.1268 C   0  0  1  0  0  0  0  0  0  0  0  0
  -15.5292    8.5042   -0.0869 C   0  0  0  0  0  0  0  0  0  0  0  0
  -13.0446    8.9582    0.2409 C   0  0  0  0  0  0  0  0  0  0  0  0
  -12.7131    8.3654    1.4410 C   0  0  0  0  0  0  0  0  0  0  0  0
  -18.5209    9.0115   -0.4632 C   0  0  1  0  0  0  0  0  0  0  0  0
  -23.7307   10.0897   -0.1270 C   0  0  0  0  0  0  0  0  0  0  0  0
  -25.0520    9.8979   -0.4897 C   0  0  0  0  0  0  0  0  0  0  0  0
  -11.2750    8.1793    3.2860 F   0  0  0  0  0  0  0  0  0  0  0  0
   -9.6424   10.1088    2.3644 F   0  0  0  0  0  0  0  0  0  0  0  0
  -10.2561   11.3216   -0.0208 F   0  0  0  0  0  0  0  0  0  0  0  0
  -16.3208    8.1030   -1.1127 N   0  0  0  0  0  0  0  0  0  0  0  0
  -14.2486    8.2120   -1.8076 N   0  0  0  0  0  0  0  0  0  0  0  0
  -15.5099    7.9308   -2.1561 N   0  0  0  0  0  0  0  0  0  0  0  0
  -20.3444    7.6272   -0.0019 O   0  0  0  0  0  0  0  0  0  0  0  0
  -21.4898    5.0707   -0.4822 O   0  0  0  0  0  0  0  0  0  0  0  0
  -17.9172    6.7836    1.0093 O   0  0  0  0  0  0  0  0  0  0  0  0
  -18.0828   10.2685   -0.7616 O   0  0  0  0  0  0  0  0  0  0  0  0
  -21.0566   10.1355   -0.5773 S   0  0  0  0  0  0  0  0  0  0  0  0
 13  1  1  1
  1 29  1  0
 16  2  2  0
  2 17  1  0
  2 26  1  0
  4  3  2  0
  3 18  1  0
  3 22  1  0
  5  4  1  0
  4 23  1  0
  6  5  2  0
  5 24  1  0
 17  6  1  0
  8  7  1  0
  9  8  2  0
  8 21  1  0
 10  9  1  0
 11 10  2  0
 11 20  1  0
 32 11  1  0
 19 12  1  0
 12 28  1  0
 12 32  1  1
 14 13  1  0
 13 28  1  0
 15 14  1  0
 14 30  1  1
 15 19  1  0
 15 25  1  1
 16 25  1  0
 17 18  2  0
 19 31  1  6
 20 21  2  0
 25 27  1  0
 26 27  2  0
M  END
$$$$
