
     RDKit          3D

 32 35  0  0  0  0  0  0  0  0999 V2000
  -20.0475    5.4130   -0.0239 C   0  0  0  0  0  0  0  0  0  0  0  0
  -14.3215    8.9431   -0.8946 C   0  0  0  0  0  0  0  0  0  0  0  0
  -10.9223   10.1162    0.0881 C   0  0  0  0  0  0  0  0  0  0  0  0
  -10.7861    9.6785    1.3899 C   0  0  0  0  0  0  0  0  0  0  0  0
  -11.8556    8.9886    1.9158 C   0  0  0  0  0  0  0  0  0  0  0  0
  -12.9848    8.7637    1.1600 C   0  0  0  0  0  0  0  0  0  0  0  0
  -26.6644    8.8421   -3.4810 C   0  0  0  0  0  0  0  0  0  0  0  0
  -25.3497    9.1484   -2.8638 C   0  0  0  0  0  0  0  0  0  0  0  0
  -24.9454    8.4858   -1.7140 C   0  0  0  0  0  0  0  0  0  0  0  0
  -23.6962    8.8103   -1.1692 C   0  0  0  0  0  0  0  0  0  0  0  0
  -22.8924    9.7520   -1.7494 C   0  0  0  0  0  0  0  0  0  0  0  0
  -20.1177    8.8293   -1.1503 C   0  0  1  0  0  0  0  0  0  0  0  0
  -19.6280    6.7019   -0.7026 C   0  0  2  0  0  0  0  0  0  0  0  0
  -18.1385    6.9398   -0.5326 C   0  0  1  0  0  0  0  0  0  0  0  0
  -17.8099    8.1430   -1.4283 C   0  0  1  0  0  0  0  0  0  0  0  0
  -15.5728    8.6397   -0.4120 C   0  0  0  0  0  0  0  0  0  0  0  0
  -13.1050    9.2084   -0.1409 C   0  0  0  0  0  0  0  0  0  0  0  0
  -12.0397    9.9005   -0.6775 C   0  0  0  0  0  0  0  0  0  0  0  0
  -18.6917    9.2587   -0.8831 C   0  0  1  0  0  0  0  0  0  0  0  0
  -23.3127   10.4099   -2.9048 C   0  0  0  0  0  0  0  0  0  0  0  0
  -24.5444   10.0991   -3.4530 C   0  0  0  0  0  0  0  0  0  0  0  0
   -9.8834   10.7997   -0.4574 F   0  0  0  0  0  0  0  0  0  0  0  0
   -9.6473    9.9334    2.0786 F   0  0  0  0  0  0  0  0  0  0  0  0
  -11.7393    8.5504    3.1955 F   0  0  0  0  0  0  0  0  0  0  0  0
  -16.4256    8.4661   -1.4524 N   0  0  0  0  0  0  0  0  0  0  0  0
  -14.4373    8.9484   -2.2290 N   0  0  0  0  0  0  0  0  0  0  0  0
  -15.7032    8.6612   -2.5552 N   0  0  0  0  0  0  0  0  0  0  0  0
  -20.3946    7.7901   -0.2528 O   0  0  0  0  0  0  0  0  0  0  0  0
  -21.3844    5.2083   -0.2881 O   0  0  0  0  0  0  0  0  0  0  0  0
  -17.9046    7.2636    0.8188 O   0  0  0  0  0  0  0  0  0  0  0  0
  -18.3588   10.5065   -1.3225 O   0  0  0  0  0  0  0  0  0  0  0  0
  -21.3113   10.1531   -1.0927 S   0  0  0  0  0  0  0  0  0  0  0  0
 13  1  1  1
  1 29  1  0
 16  2  2  0
  2 17  1  0
  2 26  1  0
  4  3  2  0
  3 18  1  0
  3 22  1  0
  5  4  1  0
  4 23  1  0
  6  5  2  0
  5 24  1  0
 17  6  1  0
  8  7  1  0
  9  8  2  0
  8 21  1  0
 10  9  1  0
 11 10  2  0
 11 20  1  0
 32 11  1  0
 19 12  1  0
 12 28  1  0
 12 32  1  1
 14 13  1  0
 13 28  1  0
 15 14  1  0
 14 30  1  1
 15 19  1  0
 15 25  1  1
 16 25  1  0
 17 18  2  0
 19 31  1  6
 20 21  2  0
 25 27  1  0
 26 27  2  0
M  END
$$$$
