
     RDKit          3D

 32 35  0  0  0  0  0  0  0  0999 V2000
  -20.4836    6.1023   -3.0238 C   0  0  0  0  0  0  0  0  0  0  0  0
  -14.6765    8.6641    0.0003 C   0  0  0  0  0  0  0  0  0  0  0  0
  -11.0187    9.3751    0.1088 C   0  0  0  0  0  0  0  0  0  0  0  0
  -10.9538   10.7424    0.2853 C   0  0  0  0  0  0  0  0  0  0  0  0
  -12.1587   11.4044    0.3650 C   0  0  0  0  0  0  0  0  0  0  0  0
  -13.3461   10.7128    0.2705 C   0  0  0  0  0  0  0  0  0  0  0  0
  -25.3525   13.3110   -1.8953 C   0  0  0  0  0  0  0  0  0  0  0  0
  -24.4830   12.2844   -1.2682 C   0  0  0  0  0  0  0  0  0  0  0  0
  -24.7452   10.9353   -1.4575 C   0  0  0  0  0  0  0  0  0  0  0  0
  -23.8959   10.0050   -0.8445 C   0  0  0  0  0  0  0  0  0  0  0  0
  -22.8361   10.4079   -0.0804 C   0  0  0  0  0  0  0  0  0  0  0  0
  -20.5043    8.5738   -0.4092 C   0  0  1  0  0  0  0  0  0  0  0  0
  -20.0083    7.1990   -2.0915 C   0  0  2  0  0  0  0  0  0  0  0  0
  -18.5834    6.9395   -1.6373 C   0  0  1  0  0  0  0  0  0  0  0  0
  -18.1558    8.2065   -0.8823 C   0  0  1  0  0  0  0  0  0  0  0  0
  -15.8419    9.1191   -0.5703 C   0  0  0  0  0  0  0  0  0  0  0  0
  -13.3935    9.3449    0.0941 C   0  0  0  0  0  0  0  0  0  0  0  0
  -12.1925    8.6721    0.0128 C   0  0  0  0  0  0  0  0  0  0  0  0
  -19.1672    8.3179    0.2510 C   0  0  1  0  0  0  0  0  0  0  0  0
  -22.5855   11.7676    0.1010 C   0  0  0  0  0  0  0  0  0  0  0  0
  -23.4168   12.6969   -0.4986 C   0  0  0  0  0  0  0  0  0  0  0  0
   -9.8461    8.6953    0.0266 F   0  0  0  0  0  0  0  0  0  0  0  0
   -9.7516   11.3619    0.3707 F   0  0  0  0  0  0  0  0  0  0  0  0
  -12.1141   12.7501    0.5385 F   0  0  0  0  0  0  0  0  0  0  0  0
  -16.8041    8.1715   -0.4431 N   0  0  0  0  0  0  0  0  0  0  0  0
  -14.9535    7.4397    0.4672 N   0  0  0  0  0  0  0  0  0  0  0  0
  -16.2324    7.1519    0.1969 N   0  0  0  0  0  0  0  0  0  0  0  0
  -20.8885    7.3679   -1.0094 O   0  0  0  0  0  0  0  0  0  0  0  0
  -21.7919    6.3699   -3.3637 O   0  0  0  0  0  0  0  0  0  0  0  0
  -18.6040    5.8367   -0.7603 O   0  0  0  0  0  0  0  0  0  0  0  0
  -18.8172    9.1954    1.2351 O   0  0  0  0  0  0  0  0  0  0  0  0
  -21.7461    9.2535    0.6754 S   0  0  0  0  0  0  0  0  0  0  0  0
 13  1  1  1
  1 29  1  0
 16  2  2  0
  2 17  1  0
  2 26  1  0
  4  3  2  0
  3 18  1  0
  3 22  1  0
  5  4  1  0
  4 23  1  0
  6  5  2  0
  5 24  1  0
 17  6  1  0
  8  7  1  0
  9  8  2  0
  8 21  1  0
 10  9  1  0
 11 10  2  0
 11 20  1  0
 32 11  1  0
 19 12  1  0
 12 28  1  0
 12 32  1  1
 14 13  1  0
 13 28  1  0
 15 14  1  0
 14 30  1  1
 15 19  1  0
 15 25  1  1
 16 25  1  0
 17 18  2  0
 19 31  1  1
 20 21  2  0
 25 27  1  0
 26 27  2  0
M  END
$$$$
