
     RDKit          3D

 32 35  0  0  0  0  0  0  0  0999 V2000
  -20.5402    5.3101   -0.7402 C   0  0  0  0  0  0  0  0  0  0  0  0
  -14.4050    8.6248    0.3900 C   0  0  0  0  0  0  0  0  0  0  0  0
  -11.1480    9.6728   -1.0899 C   0  0  0  0  0  0  0  0  0  0  0  0
  -10.4034   10.0721    0.0015 C   0  0  0  0  0  0  0  0  0  0  0  0
  -11.0219    9.9787    1.2282 C   0  0  0  0  0  0  0  0  0  0  0  0
  -12.3128    9.5089    1.3286 C   0  0  0  0  0  0  0  0  0  0  0  0
  -26.9304    9.0707   -2.0508 C   0  0  0  0  0  0  0  0  0  0  0  0
  -25.5054    9.3544   -1.7475 C   0  0  0  0  0  0  0  0  0  0  0  0
  -24.8637    8.6865   -0.7147 C   0  0  0  0  0  0  0  0  0  0  0  0
  -23.5184    8.9894   -0.4674 C   0  0  0  0  0  0  0  0  0  0  0  0
  -22.8501    9.9154   -1.2192 C   0  0  0  0  0  0  0  0  0  0  0  0
  -20.0709    8.8736   -0.9035 C   0  0  1  0  0  0  0  0  0  0  0  0
  -19.8547    6.6558   -0.8710 C   0  0  2  0  0  0  0  0  0  0  0  0
  -18.5317    6.6606   -0.1271 C   0  0  1  0  0  0  0  0  0  0  0  0
  -17.8515    7.9839   -0.5073 C   0  0  1  0  0  0  0  0  0  0  0  0
  -15.4522    8.7100   -0.4971 C   0  0  0  0  0  0  0  0  0  0  0  0
  -13.0439    9.1135    0.2269 C   0  0  0  0  0  0  0  0  0  0  0  0
  -12.4339    9.2030   -1.0067 C   0  0  0  0  0  0  0  0  0  0  0  0
  -18.8370    9.0494   -0.0458 C   0  0  1  0  0  0  0  0  0  0  0  0
  -23.5088   10.5789   -2.2539 C   0  0  0  0  0  0  0  0  0  0  0  0
  -24.8375   10.2894   -2.5085 C   0  0  0  0  0  0  0  0  0  0  0  0
  -10.5641    9.7538   -2.3131 F   0  0  0  0  0  0  0  0  0  0  0  0
   -9.1373   10.5250   -0.1666 F   0  0  0  0  0  0  0  0  0  0  0  0
  -10.3044   10.3673    2.3132 F   0  0  0  0  0  0  0  0  0  0  0  0
  -16.5501    8.1280    0.0466 N   0  0  0  0  0  0  0  0  0  0  0  0
  -14.8890    7.9880    1.4644 N   0  0  0  0  0  0  0  0  0  0  0  0
  -16.1769    7.6936    1.2499 N   0  0  0  0  0  0  0  0  0  0  0  0
  -20.6985    7.7018   -0.4613 O   0  0  0  0  0  0  0  0  0  0  0  0
  -21.8314    5.4433   -1.2026 O   0  0  0  0  0  0  0  0  0  0  0  0
  -18.8128    6.6397    1.2536 O   0  0  0  0  0  0  0  0  0  0  0  0
  -18.3230   10.3124   -0.0030 O   0  0  0  0  0  0  0  0  0  0  0  0
  -21.1550   10.2891   -0.9380 S   0  0  0  0  0  0  0  0  0  0  0  0
 13  1  1  1
  1 29  1  0
 16  2  2  0
  2 17  1  0
  2 26  1  0
  4  3  2  0
  3 18  1  0
  3 22  1  0
  5  4  1  0
  4 23  1  0
  6  5  2  0
  5 24  1  0
 17  6  1  0
  8  7  1  0
  9  8  2  0
  8 21  1  0
 10  9  1  0
 11 10  2  0
 11 20  1  0
 32 11  1  0
 19 12  1  0
 12 28  1  0
 12 32  1  1
 14 13  1  0
 13 28  1  0
 15 14  1  0
 14 30  1  1
 15 19  1  0
 15 25  1  1
 16 25  1  0
 17 18  2  0
 19 31  1  6
 20 21  2  0
 25 27  1  0
 26 27  2  0
M  END
$$$$
