
     RDKit          3D

 32 35  0  0  0  0  0  0  0  0999 V2000
  -20.4470    5.0358   -0.8828 C   0  0  0  0  0  0  0  0  0  0  0  0
  -14.3599    8.5929   -0.5401 C   0  0  0  0  0  0  0  0  0  0  0  0
  -11.0996    9.4431    1.0551 C   0  0  0  0  0  0  0  0  0  0  0  0
  -11.0480   10.8205    0.9857 C   0  0  0  0  0  0  0  0  0  0  0  0
  -12.1261   11.4417    0.3956 C   0  0  0  0  0  0  0  0  0  0  0  0
  -13.1823   10.7024   -0.0890 C   0  0  0  0  0  0  0  0  0  0  0  0
  -26.8959    9.6552   -1.4056 C   0  0  0  0  0  0  0  0  0  0  0  0
  -25.4515    9.7199   -1.0699 C   0  0  0  0  0  0  0  0  0  0  0  0
  -24.5103    9.9296   -2.0673 C   0  0  0  0  0  0  0  0  0  0  0  0
  -23.1594    9.9824   -1.7001 C   0  0  0  0  0  0  0  0  0  0  0  0
  -22.7721    9.8330   -0.3974 C   0  0  0  0  0  0  0  0  0  0  0  0
  -20.0592    8.5950   -0.5268 C   0  0  1  0  0  0  0  0  0  0  0  0
  -19.8495    6.4250   -0.9884 C   0  0  2  0  0  0  0  0  0  0  0  0
  -18.3489    6.3841   -0.7634 C   0  0  1  0  0  0  0  0  0  0  0  0
  -17.8446    7.7948   -1.1006 C   0  0  1  0  0  0  0  0  0  0  0  0
  -15.6974    8.8455   -0.3455 C   0  0  0  0  0  0  0  0  0  0  0  0
  -13.2184    9.3250   -0.0116 C   0  0  0  0  0  0  0  0  0  0  0  0
  -12.1437    8.6927    0.5775 C   0  0  0  0  0  0  0  0  0  0  0  0
  -18.6015    8.6964   -0.1343 C   0  0  1  0  0  0  0  0  0  0  0  0
  -23.7299    9.6225    0.5941 C   0  0  0  0  0  0  0  0  0  0  0  0
  -25.0675    9.5679    0.2450 C   0  0  0  0  0  0  0  0  0  0  0  0
  -10.0503    8.8028    1.6320 F   0  0  0  0  0  0  0  0  0  0  0  0
   -9.9783   11.4880    1.4822 F   0  0  0  0  0  0  0  0  0  0  0  0
  -12.0924   12.7967    0.3183 F   0  0  0  0  0  0  0  0  0  0  0  0
  -16.4311    7.9229   -1.0165 N   0  0  0  0  0  0  0  0  0  0  0  0
  -14.3045    7.5137   -1.3315 N   0  0  0  0  0  0  0  0  0  0  0  0
  -15.5519    7.1181   -1.6126 N   0  0  0  0  0  0  0  0  0  0  0  0
  -20.4923    7.3256   -0.1226 O   0  0  0  0  0  0  0  0  0  0  0  0
  -21.8049    5.1394   -1.0930 O   0  0  0  0  0  0  0  0  0  0  0  0
  -18.1243    6.1019    0.5988 O   0  0  0  0  0  0  0  0  0  0  0  0
  -18.1033    9.9625   -0.0363 O   0  0  0  0  0  0  0  0  0  0  0  0
  -21.0830    9.9214    0.0836 S   0  0  0  0  0  0  0  0  0  0  0  0
 13  1  1  1
  1 29  1  0
 16  2  2  0
  2 17  1  0
  2 26  1  0
  4  3  2  0
  3 18  1  0
  3 22  1  0
  5  4  1  0
  4 23  1  0
  6  5  2  0
  5 24  1  0
 17  6  1  0
  8  7  1  0
  9  8  2  0
  8 21  1  0
 10  9  1  0
 11 10  2  0
 11 20  1  0
 32 11  1  0
 19 12  1  0
 12 28  1  0
 12 32  1  1
 14 13  1  0
 13 28  1  0
 15 14  1  0
 14 30  1  1
 15 19  1  0
 15 25  1  1
 16 25  1  0
 17 18  2  0
 19 31  1  6
 20 21  2  0
 25 27  1  0
 26 27  2  0
M  END
$$$$
