
     RDKit          3D

 32 35  0  0  0  0  0  0  0  0999 V2000
  -20.6855    8.9019   -4.2984 C   0  0  0  0  0  0  0  0  0  0  0  0
  -14.6608    8.2964   -0.6151 C   0  0  0  0  0  0  0  0  0  0  0  0
  -11.0588    8.4862    0.3263 C   0  0  0  0  0  0  0  0  0  0  0  0
  -11.0786    9.0189    1.5994 C   0  0  0  0  0  0  0  0  0  0  0  0
  -12.3204    9.3064    2.1204 C   0  0  0  0  0  0  0  0  0  0  0  0
  -13.4613    9.0647    1.3875 C   0  0  0  0  0  0  0  0  0  0  0  0
  -26.9759   10.6247    0.0998 C   0  0  0  0  0  0  0  0  0  0  0  0
  -25.6603    9.9458    0.2063 C   0  0  0  0  0  0  0  0  0  0  0  0
  -25.5241    8.6201   -0.1791 C   0  0  0  0  0  0  0  0  0  0  0  0
  -24.2621    8.0237   -0.0593 C   0  0  0  0  0  0  0  0  0  0  0  0
  -23.1901    8.7226    0.4223 C   0  0  0  0  0  0  0  0  0  0  0  0
  -20.4526    8.4528   -0.7363 C   0  0  1  0  0  0  0  0  0  0  0  0
  -20.1159    8.8982   -2.8936 C   0  0  2  0  0  0  0  0  0  0  0  0
  -18.6684    8.4413   -2.9009 C   0  0  1  0  0  0  0  0  0  0  0  0
  -18.1551    8.6806   -1.4735 C   0  0  1  0  0  0  0  0  0  0  0  0
  -15.8927    8.8723   -0.4110 C   0  0  0  0  0  0  0  0  0  0  0  0
  -13.4241    8.5314    0.1153 C   0  0  0  0  0  0  0  0  0  0  0  0
  -12.1854    8.2397   -0.4162 C   0  0  0  0  0  0  0  0  0  0  0  0
  -19.0775    7.8355   -0.6048 C   0  0  1  0  0  0  0  0  0  0  0  0
  -23.3428   10.0546    0.8059 C   0  0  0  0  0  0  0  0  0  0  0  0
  -24.5839   10.6555    0.6931 C   0  0  0  0  0  0  0  0  0  0  0  0
   -9.8481    8.1925   -0.2137 F   0  0  0  0  0  0  0  0  0  0  0  0
   -9.9185    9.2320    2.2666 F   0  0  0  0  0  0  0  0  0  0  0  0
  -12.3590    9.8313    3.3719 F   0  0  0  0  0  0  0  0  0  0  0  0
  -16.7760    8.3747   -1.3120 N   0  0  0  0  0  0  0  0  0  0  0  0
  -14.8191    7.4532   -1.6437 N   0  0  0  0  0  0  0  0  0  0  0  0
  -16.0914    7.5064   -2.0559 N   0  0  0  0  0  0  0  0  0  0  0  0
  -20.9098    8.1346   -2.0216 O   0  0  0  0  0  0  0  0  0  0  0  0
  -22.0514    9.0573   -4.2036 O   0  0  0  0  0  0  0  0  0  0  0  0
  -18.6522    7.0637   -3.1970 O   0  0  0  0  0  0  0  0  0  0  0  0
  -18.6344    7.6476    0.6717 O   0  0  0  0  0  0  0  0  0  0  0  0
  -21.5942    7.9966    0.5557 S   0  0  0  0  0  0  0  0  0  0  0  0
 13  1  1  6
  1 29  1  0
 16  2  2  0
  2 17  1  0
  2 26  1  0
  4  3  2  0
  3 18  1  0
  3 22  1  0
  5  4  1  0
  4 23  1  0
  6  5  2  0
  5 24  1  0
 17  6  1  0
  8  7  1  0
  9  8  2  0
  8 21  1  0
 10  9  1  0
 11 10  2  0
 11 20  1  0
 32 11  1  0
 19 12  1  0
 12 28  1  0
 12 32  1  1
 14 13  1  0
 13 28  1  0
 15 14  1  0
 14 30  1  1
 15 19  1  0
 15 25  1  6
 16 25  1  0
 17 18  2  0
 19 31  1  1
 20 21  2  0
 25 27  1  0
 26 27  2  0
M  END
$$$$
