
     RDKit          3D

 32 35  0  0  0  0  0  0  0  0999 V2000
  -20.5733    5.1992   -0.4220 C   0  0  0  0  0  0  0  0  0  0  0  0
  -14.4877    8.6053    0.2451 C   0  0  0  0  0  0  0  0  0  0  0  0
  -10.8857    9.4933    0.6106 C   0  0  0  0  0  0  0  0  0  0  0  0
  -10.3811    9.3558   -0.6666 C   0  0  0  0  0  0  0  0  0  0  0  0
  -11.2760    8.9619   -1.6362 C   0  0  0  0  0  0  0  0  0  0  0  0
  -12.5953    8.7258   -1.3183 C   0  0  0  0  0  0  0  0  0  0  0  0
  -25.8794    9.1726   -4.8859 C   0  0  0  0  0  0  0  0  0  0  0  0
  -24.7858    9.4098   -3.9108 C   0  0  0  0  0  0  0  0  0  0  0  0
  -25.0533    9.4245   -2.5496 C   0  0  0  0  0  0  0  0  0  0  0  0
  -23.9876    9.6528   -1.6694 C   0  0  0  0  0  0  0  0  0  0  0  0
  -22.7169    9.8555   -2.1315 C   0  0  0  0  0  0  0  0  0  0  0  0
  -20.2311    8.7480   -0.9054 C   0  0  1  0  0  0  0  0  0  0  0  0
  -19.9375    6.5501   -0.6846 C   0  0  2  0  0  0  0  0  0  0  0  0
  -18.6016    6.6637    0.0269 C   0  0  1  0  0  0  0  0  0  0  0  0
  -17.9751    7.9701   -0.4820 C   0  0  1  0  0  0  0  0  0  0  0  0
  -15.5159    8.4266   -0.6502 C   0  0  0  0  0  0  0  0  0  0  0  0
  -13.0840    8.8681   -0.0356 C   0  0  0  0  0  0  0  0  0  0  0  0
  -12.1960    9.2621    0.9433 C   0  0  0  0  0  0  0  0  0  0  0  0
  -18.9880    9.0391   -0.0936 C   0  0  1  0  0  0  0  0  0  0  0  0
  -22.4636    9.8382   -3.5027 C   0  0  0  0  0  0  0  0  0  0  0  0
  -23.5073    9.6141   -4.3830 C   0  0  0  0  0  0  0  0  0  0  0  0
  -10.0262    9.8807    1.5879 F   0  0  0  0  0  0  0  0  0  0  0  0
   -9.0717    9.6040   -0.9121 F   0  0  0  0  0  0  0  0  0  0  0  0
  -10.7971    8.8213   -2.8988 F   0  0  0  0  0  0  0  0  0  0  0  0
  -16.6691    8.2051    0.0286 N   0  0  0  0  0  0  0  0  0  0  0  0
  -15.0386    8.4883    1.4604 N   0  0  0  0  0  0  0  0  0  0  0  0
  -16.3479    8.2482    1.3212 N   0  0  0  0  0  0  0  0  0  0  0  0
  -20.8092    7.5997   -0.3492 O   0  0  0  0  0  0  0  0  0  0  0  0
  -21.2077    4.7955   -1.5767 O   0  0  0  0  0  0  0  0  0  0  0  0
  -18.8555    6.7549    1.4100 O   0  0  0  0  0  0  0  0  0  0  0  0
  -18.5174   10.3171   -0.1723 O   0  0  0  0  0  0  0  0  0  0  0  0
  -21.3641   10.1187   -1.0394 S   0  0  0  0  0  0  0  0  0  0  0  0
 13  1  1  1
  1 29  1  0
 16  2  2  0
  2 17  1  0
  2 26  1  0
  4  3  2  0
  3 18  1  0
  3 22  1  0
  5  4  1  0
  4 23  1  0
  6  5  2  0
  5 24  1  0
 17  6  1  0
  8  7  1  0
  9  8  2  0
  8 21  1  0
 10  9  1  0
 11 10  2  0
 11 20  1  0
 32 11  1  0
 19 12  1  0
 12 28  1  0
 12 32  1  1
 14 13  1  0
 13 28  1  0
 15 14  1  0
 14 30  1  1
 15 19  1  0
 15 25  1  1
 16 25  1  0
 17 18  2  0
 19 31  1  6
 20 21  2  0
 25 27  1  0
 26 27  2  0
M  END
$$$$
