
     RDKit          3D

 32 35  0  0  0  0  0  0  0  0999 V2000
  -20.2548    5.1205   -0.0258 C   0  0  0  0  0  0  0  0  0  0  0  0
  -14.4411    8.7214   -0.4838 C   0  0  0  0  0  0  0  0  0  0  0  0
  -12.1878    9.6256    2.3450 C   0  0  0  0  0  0  0  0  0  0  0  0
  -11.0044    9.9729    1.7256 C   0  0  0  0  0  0  0  0  0  0  0  0
  -10.9901    9.8942    0.3509 C   0  0  0  0  0  0  0  0  0  0  0  0
  -12.1105    9.4881   -0.3397 C   0  0  0  0  0  0  0  0  0  0  0  0
  -27.1332    8.4631   -0.1920 C   0  0  0  0  0  0  0  0  0  0  0  0
  -25.7001    8.8180   -0.3450 C   0  0  0  0  0  0  0  0  0  0  0  0
  -25.0191    8.4921   -1.5088 C   0  0  0  0  0  0  0  0  0  0  0  0
  -23.6676    8.8482   -1.6051 C   0  0  0  0  0  0  0  0  0  0  0  0
  -23.0312    9.4994   -0.5851 C   0  0  0  0  0  0  0  0  0  0  0  0
  -20.1905    8.6222   -0.8495 C   0  0  1  0  0  0  0  0  0  0  0  0
  -19.7791    6.4487   -0.5803 C   0  0  2  0  0  0  0  0  0  0  0  0
  -18.2871    6.6205   -0.3603 C   0  0  1  0  0  0  0  0  0  0  0  0
  -17.9000    7.8853   -1.1404 C   0  0  1  0  0  0  0  0  0  0  0  0
  -15.7432    8.5772   -0.0662 C   0  0  0  0  0  0  0  0  0  0  0  0
  -13.2866    9.1441    0.2951 C   0  0  0  0  0  0  0  0  0  0  0  0
  -13.3117    9.2193    1.6719 C   0  0  0  0  0  0  0  0  0  0  0  0
  -18.7581    8.9784   -0.5172 C   0  0  1  0  0  0  0  0  0  0  0  0
  -23.7290    9.8200    0.5788 C   0  0  0  0  0  0  0  0  0  0  0  0
  -25.0642    9.4738    0.6870 C   0  0  0  0  0  0  0  0  0  0  0  0
  -12.2316    9.6934    3.7005 F   0  0  0  0  0  0  0  0  0  0  0  0
   -9.9381   10.3644    2.4646 F   0  0  0  0  0  0  0  0  0  0  0  0
   -9.8340   10.2320   -0.2755 F   0  0  0  0  0  0  0  0  0  0  0  0
  -16.5059    8.1625   -1.1084 N   0  0  0  0  0  0  0  0  0  0  0  0
  -14.4359    8.3893   -1.7814 N   0  0  0  0  0  0  0  0  0  0  0  0
  -15.6791    8.0553   -2.1481 N   0  0  0  0  0  0  0  0  0  0  0  0
  -20.5207    7.5187   -0.0523 O   0  0  0  0  0  0  0  0  0  0  0  0
  -21.5737    4.9553   -0.3891 O   0  0  0  0  0  0  0  0  0  0  0  0
  -18.0740    6.8175    1.0186 O   0  0  0  0  0  0  0  0  0  0  0  0
  -18.3756   10.2478   -0.8388 O   0  0  0  0  0  0  0  0  0  0  0  0
  -21.3424    9.9754   -0.6999 S   0  0  0  0  0  0  0  0  0  0  0  0
 13  1  1  1
  1 29  1  0
 16  2  2  0
  2 17  1  0
  2 26  1  0
  4  3  2  0
  3 18  1  0
  3 22  1  0
  5  4  1  0
  4 23  1  0
  6  5  2  0
  5 24  1  0
 17  6  1  0
  8  7  1  0
  9  8  2  0
  8 21  1  0
 10  9  1  0
 11 10  2  0
 11 20  1  0
 32 11  1  0
 19 12  1  0
 12 28  1  0
 12 32  1  1
 14 13  1  0
 13 28  1  0
 15 14  1  0
 14 30  1  1
 15 19  1  0
 15 25  1  1
 16 25  1  0
 17 18  2  0
 19 31  1  6
 20 21  2  0
 25 27  1  0
 26 27  2  0
M  END
$$$$
