
     RDKit          3D

 30 33  0  0  0  0  0  0  0  0999 V2000
   -6.5608  -16.3546   67.9174 C   0  0  0  0  0  0  0  0  0  0  0  0
   -7.7633  -14.6594   68.5327 C   0  0  0  0  0  0  0  0  0  0  0  0
  -10.0079  -15.4500   67.6040 C   0  0  0  0  0  0  0  0  0  0  0  0
  -12.0222  -16.3810   66.6275 C   0  0  0  0  0  0  0  0  0  0  0  0
  -10.7572  -14.3700   68.0228 C   0  0  0  0  0  0  0  0  0  0  0  0
   -3.5833  -15.6660   65.9728 C   0  0  0  0  0  0  0  0  0  0  0  0
   -2.6561  -14.9858   65.1832 C   0  0  0  0  0  0  0  0  0  0  0  0
   -1.8259  -13.3934   66.8982 C   0  0  0  0  0  0  0  0  0  0  0  0
   -3.1421  -11.3814   66.3624 C   0  0  0  0  0  0  0  0  0  0  0  0
   -4.4987  -10.2991   67.9923 C   0  0  0  0  0  0  0  0  0  0  0  0
   -0.8139  -15.5476   61.9604 N   0  0  0  0  0  0  0  0  0  0  0  0
   -1.4029  -14.8162   63.0131 C   0  0  0  0  0  0  0  0  0  0  0  0
   -1.1003  -13.5907   63.1955 N   0  0  0  0  0  4  0  0  0  0  0  0
   -2.3371  -15.4724   63.9121 C   0  0  0  0  0  0  0  0  0  0  0  0
   -2.9726  -16.6333   63.4923 C   0  0  0  0  0  0  0  0  0  0  0  0
   -3.8819  -17.2927   64.2784 C   0  0  0  0  0  0  0  0  0  0  0  0
   -4.2071  -16.8102   65.5547 C   0  0  0  0  0  0  0  0  0  0  0  0
   -5.1439  -17.5155   66.3472 N   0  0  0  0  0  0  0  0  0  0  0  0
   -5.3894  -17.2411   67.7288 C   0  0  0  0  0  0  0  0  0  0  0  0
   -7.7972  -16.5795   67.5122 N   0  0  0  0  0  0  0  0  0  0  0  0
   -8.5694  -15.5467   67.8783 C   0  0  0  0  0  0  0  0  0  0  0  0
   -6.5280  -15.1827   68.5427 N   0  0  0  0  0  0  0  0  0  0  0  0
  -10.6751  -16.4394   66.9074 C   0  0  0  0  0  0  0  0  0  0  0  0
  -12.7588  -15.2718   67.0650 C   0  0  0  0  0  0  0  0  0  0  0  0
  -12.1149  -14.2771   67.7593 C   0  0  0  0  0  0  0  0  0  0  0  0
   -2.0385  -13.8590   65.6034 O   0  0  0  0  0  0  0  0  0  0  0  0
   -2.7646  -12.3167   67.2986 C   0  0  0  0  0  0  0  0  0  0  0  0
   -4.0072  -10.3751   66.7093 C   0  0  0  0  0  0  0  0  0  0  0  0
   -4.1053  -11.2299   68.8703 N   0  0  0  0  0  0  0  0  0  0  0  0
   -3.2640  -12.2263   68.5737 C   0  0  0  0  0  0  0  0  0  0  0  0
 19  1  1  0
  1 20  2  0
  1 22  1  0
  2 21  2  0
 22  2  1  0
  3  5  2  0
 21  3  1  0
  3 23  1  0
 23  4  2  0
  4 24  1  0
  5 25  1  0
  6  7  2  0
 17  6  1  0
  7 14  1  0
  7 26  1  0
 26  8  1  0
  8 27  1  0
 27  9  2  0
  9 28  1  0
 28 10  2  0
 10 29  1  0
 12 11  1  0
 12 13  2  0
 14 12  1  0
 15 14  2  0
 16 15  1  0
 17 16  2  0
 18 17  1  0
 18 19  1  0
 20 21  1  0
 24 25  2  0
 27 30  1  0
 29 30  2  0
M  CHG  1  13   1
M  END
$$$$
