
     RDKit          3D

 30 33  0  0  0  0  0  0  0  0999 V2000
   -6.0738  -15.1239   68.1020 C   0  0  0  0  0  0  0  0  0  0  0  0
   -6.6544  -13.1039   67.5724 C   0  0  0  0  0  0  0  0  0  0  0  0
   -7.6611  -12.4150   69.8169 C   0  0  0  0  0  0  0  0  0  0  0  0
   -8.8177  -12.0454   71.9154 C   0  0  0  0  0  0  0  0  0  0  0  0
   -7.7780  -11.0646   69.5599 C   0  0  0  0  0  0  0  0  0  0  0  0
   -3.4707  -15.1984   66.2702 C   0  0  0  0  0  0  0  0  0  0  0  0
   -2.4499  -14.6467   65.4958 C   0  0  0  0  0  0  0  0  0  0  0  0
   -1.9452  -12.7160   66.9736 C   0  0  0  0  0  0  0  0  0  0  0  0
    0.4122  -12.8844   67.6679 C   0  0  0  0  0  0  0  0  0  0  0  0
    1.0417  -12.9581   69.9628 C   0  0  0  0  0  0  0  0  0  0  0  0
   -0.6275  -15.4736   62.3138 N   0  0  0  0  0  0  0  0  0  0  0  0
   -1.1256  -14.6713   63.3618 C   0  0  0  0  0  0  0  0  0  0  0  0
   -0.6605  -13.4994   63.5540 N   0  0  0  0  0  4  0  0  0  0  0  0
   -2.1535  -15.1958   64.2448 C   0  0  0  0  0  0  0  0  0  0  0  0
   -2.9060  -16.2860   63.8290 C   0  0  0  0  0  0  0  0  0  0  0  0
   -3.9065  -16.8190   64.6000 C   0  0  0  0  0  0  0  0  0  0  0  0
   -4.2097  -16.2733   65.8561 C   0  0  0  0  0  0  0  0  0  0  0  0
   -5.2429  -16.8486   66.6336 N   0  0  0  0  0  0  0  0  0  0  0  0
   -5.5154  -16.4913   67.9910 C   0  0  0  0  0  0  0  0  0  0  0  0
   -6.6361  -14.5826   69.1669 N   0  0  0  0  0  0  0  0  0  0  0  0
   -7.0075  -13.3286   68.8725 C   0  0  0  0  0  0  0  0  0  0  0  0
   -6.0798  -14.2288   67.1202 N   0  0  0  0  0  0  0  0  0  0  0  0
   -8.1936  -12.8716   71.0074 C   0  0  0  0  0  0  0  0  0  0  0  0
   -8.9224  -10.6776   71.6282 C   0  0  0  0  0  0  0  0  0  0  0  0
   -8.3995  -10.2030   70.4502 C   0  0  0  0  0  0  0  0  0  0  0  0
   -1.7191  -13.5883   65.9122 O   0  0  0  0  0  0  0  0  0  0  0  0
   -0.9114  -12.7986   68.0344 C   0  0  0  0  0  0  0  0  0  0  0  0
    1.3860  -12.9639   68.6305 C   0  0  0  0  0  0  0  0  0  0  0  0
   -0.2575  -12.8730   70.2740 N   0  0  0  0  0  0  0  0  0  0  0  0
   -1.2376  -12.7942   69.3675 C   0  0  0  0  0  0  0  0  0  0  0  0
 19  1  1  0
  1 20  2  0
  1 22  1  0
  2 21  2  0
 22  2  1  0
  3  5  2  0
 21  3  1  0
  3 23  1  0
 23  4  2  0
  4 24  1  0
  5 25  1  0
  6  7  2  0
 17  6  1  0
  7 14  1  0
  7 26  1  0
 26  8  1  0
  8 27  1  0
 27  9  2  0
  9 28  1  0
 28 10  2  0
 10 29  1  0
 12 11  1  0
 12 13  2  0
 14 12  1  0
 15 14  2  0
 16 15  1  0
 17 16  2  0
 18 17  1  0
 18 19  1  0
 20 21  1  0
 24 25  2  0
 27 30  1  0
 29 30  2  0
M  CHG  1  13   1
M  END
$$$$
