
     RDKit          3D

 30 33  0  0  0  0  0  0  0  0999 V2000
   -4.7734  -16.3382   68.3588 C   0  0  0  0  0  0  0  0  0  0  0  0
   -3.0403  -16.9561   69.5044 C   0  0  0  0  0  0  0  0  0  0  0  0
   -3.0356  -15.0548   71.2103 C   0  0  0  0  0  0  0  0  0  0  0  0
   -3.1739  -13.1278   72.6751 C   0  0  0  0  0  0  0  0  0  0  0  0
   -1.9721  -15.5035   71.9659 C   0  0  0  0  0  0  0  0  0  0  0  0
   -3.9535  -14.9442   65.4804 C   0  0  0  0  0  0  0  0  0  0  0  0
   -2.9426  -14.3628   64.7150 C   0  0  0  0  0  0  0  0  0  0  0  0
   -3.2639  -11.9882   65.3663 C   0  0  0  0  0  0  0  0  0  0  0  0
   -3.9157  -11.0448   67.5464 C   0  0  0  0  0  0  0  0  0  0  0  0
   -2.3939  -10.9427   69.3745 C   0  0  0  0  0  0  0  0  0  0  0  0
   -0.5521  -15.4499   62.0050 N   0  0  0  0  0  0  0  0  0  0  0  0
   -1.2592  -14.5825   62.8640 C   0  0  0  0  0  0  0  0  0  0  0  0
   -0.9693  -13.3414   62.9088 N   0  0  0  0  0  4  0  0  0  0  0  0
   -2.3035  -15.1133   63.7238 C   0  0  0  0  0  0  0  0  0  0  0  0
   -2.7160  -16.4274   63.5491 C   0  0  0  0  0  0  0  0  0  0  0  0
   -3.7108  -16.9872   64.3085 C   0  0  0  0  0  0  0  0  0  0  0  0
   -4.3567  -16.2403   65.3047 C   0  0  0  0  0  0  0  0  0  0  0  0
   -5.3752  -16.8462   66.0783 N   0  0  0  0  0  0  0  0  0  0  0  0
   -5.8393  -16.3349   67.3304 C   0  0  0  0  0  0  0  0  0  0  0  0
   -4.5978  -15.4498   69.3196 N   0  0  0  0  0  0  0  0  0  0  0  0
   -3.5305  -15.8038   70.0494 C   0  0  0  0  0  0  0  0  0  0  0  0
   -3.8263  -17.2643   68.4617 N   0  0  0  0  0  0  0  0  0  0  0  0
   -3.6137  -13.8601   71.5949 C   0  0  0  0  0  0  0  0  0  0  0  0
   -2.0913  -13.6076   73.4248 C   0  0  0  0  0  0  0  0  0  0  0  0
   -1.5021  -14.7932   73.0595 C   0  0  0  0  0  0  0  0  0  0  0  0
   -2.5443  -13.0837   64.8967 O   0  0  0  0  0  0  0  0  0  0  0  0
   -2.9421  -11.6296   66.7694 C   0  0  0  0  0  0  0  0  0  0  0  0
   -3.6415  -10.7023   68.8459 C   0  0  0  0  0  0  0  0  0  0  0  0
   -1.4774  -11.5136   68.5832 N   0  0  0  0  0  0  0  0  0  0  0  0
   -1.7031  -11.8623   67.3120 C   0  0  0  0  0  0  0  0  0  0  0  0
 19  1  1  0
  1 20  2  0
  1 22  1  0
  2 21  2  0
 22  2  1  0
  3  5  2  0
 21  3  1  0
  3 23  1  0
 23  4  2  0
  4 24  1  0
  5 25  1  0
  6  7  2  0
 17  6  1  0
  7 14  1  0
  7 26  1  0
 26  8  1  0
  8 27  1  0
 27  9  2  0
  9 28  1  0
 28 10  2  0
 10 29  1  0
 12 11  1  0
 12 13  2  0
 14 12  1  0
 15 14  2  0
 16 15  1  0
 17 16  2  0
 18 17  1  0
 18 19  1  0
 20 21  1  0
 24 25  2  0
 27 30  1  0
 29 30  2  0
M  CHG  1  13   1
M  END
$$$$
