
     RDKit          3D

 30 33  0  0  0  0  0  0  0  0999 V2000
   -6.3564  -17.6038   68.2105 C   0  0  0  0  0  0  0  0  0  0  0  0
   -6.3496  -18.6142   70.1281 C   0  0  0  0  0  0  0  0  0  0  0  0
   -8.3739  -17.4474   71.1607 C   0  0  0  0  0  0  0  0  0  0  0  0
  -10.2744  -16.1756   71.9661 C   0  0  0  0  0  0  0  0  0  0  0  0
   -8.3858  -18.1445   72.3513 C   0  0  0  0  0  0  0  0  0  0  0  0
   -3.4881  -14.5451   65.8848 C   0  0  0  0  0  0  0  0  0  0  0  0
   -2.5019  -14.2642   64.9391 C   0  0  0  0  0  0  0  0  0  0  0  0
   -2.1002  -11.8699   65.4605 C   0  0  0  0  0  0  0  0  0  0  0  0
   -1.3977  -11.5448   67.7991 C   0  0  0  0  0  0  0  0  0  0  0  0
    0.6072  -10.3885   68.3573 C   0  0  0  0  0  0  0  0  0  0  0  0
   -0.5946  -13.7110   62.7874 N   0  0  0  0  0  0  0  0  0  0  0  0
   -1.2602  -14.9522   62.8671 C   0  0  0  0  0  0  0  0  0  0  0  0
   -1.0173  -15.8703   62.0158 N   0  0  0  0  0  4  0  0  0  0  0  0
   -2.2497  -15.1738   63.9079 C   0  0  0  0  0  0  0  0  0  0  0  0
   -3.0096  -16.3354   63.8780 C   0  0  0  0  0  0  0  0  0  0  0  0
   -3.9759  -16.5997   64.8140 C   0  0  0  0  0  0  0  0  0  0  0  0
   -4.2346  -15.6917   65.8513 C   0  0  0  0  0  0  0  0  0  0  0  0
   -5.2330  -15.9941   66.8077 N   0  0  0  0  0  0  0  0  0  0  0  0
   -5.9709  -17.2186   66.8333 C   0  0  0  0  0  0  0  0  0  0  0  0
   -7.3621  -17.1195   68.9157 N   0  0  0  0  0  0  0  0  0  0  0  0
   -7.3866  -17.7256   70.1111 C   0  0  0  0  0  0  0  0  0  0  0  0
   -5.7296  -18.5187   68.9421 N   0  0  0  0  0  0  0  0  0  0  0  0
   -9.3353  -16.4677   71.0021 C   0  0  0  0  0  0  0  0  0  0  0  0
  -10.2629  -16.8996   73.1661 C   0  0  0  0  0  0  0  0  0  0  0  0
   -9.3157  -17.8780   73.3441 C   0  0  0  0  0  0  0  0  0  0  0  0
   -1.7634  -13.1326   64.9803 O   0  0  0  0  0  0  0  0  0  0  0  0
   -1.1398  -11.3452   66.4621 C   0  0  0  0  0  0  0  0  0  0  0  0
   -0.5257  -11.0672   68.7439 C   0  0  0  0  0  0  0  0  0  0  0  0
    0.8187  -10.2175   67.0465 N   0  0  0  0  0  0  0  0  0  0  0  0
   -0.0055  -10.6662   66.0936 C   0  0  0  0  0  0  0  0  0  0  0  0
 19  1  1  0
  1 20  2  0
  1 22  1  0
  2 21  2  0
 22  2  1  0
  3  5  2  0
 21  3  1  0
  3 23  1  0
 23  4  2  0
  4 24  1  0
  5 25  1  0
  6  7  2  0
 17  6  1  0
  7 14  1  0
  7 26  1  0
 26  8  1  0
  8 27  1  0
 27  9  2  0
  9 28  1  0
 28 10  2  0
 10 29  1  0
 12 11  1  0
 12 13  2  0
 14 12  1  0
 15 14  2  0
 16 15  1  0
 17 16  2  0
 18 17  1  0
 18 19  1  0
 20 21  1  0
 24 25  2  0
 27 30  1  0
 29 30  2  0
M  CHG  1  13   1
M  END
$$$$
