
     RDKit          3D

 30 33  0  0  0  0  0  0  0  0999 V2000
   -5.8870  -15.5924   68.1074 C   0  0  0  0  0  0  0  0  0  0  0  0
   -7.3560  -14.0501   67.7058 C   0  0  0  0  0  0  0  0  0  0  0  0
   -7.2698  -12.8681   69.9688 C   0  0  0  0  0  0  0  0  0  0  0  0
   -6.8961  -11.7820   72.1039 C   0  0  0  0  0  0  0  0  0  0  0  0
   -8.3346  -12.0148   69.7655 C   0  0  0  0  0  0  0  0  0  0  0  0
   -3.2099  -15.4372   65.9464 C   0  0  0  0  0  0  0  0  0  0  0  0
   -2.3077  -14.8660   65.0487 C   0  0  0  0  0  0  0  0  0  0  0  0
   -1.2754  -13.2435   66.6198 C   0  0  0  0  0  0  0  0  0  0  0  0
   -2.9408  -11.4597   66.2848 C   0  0  0  0  0  0  0  0  0  0  0  0
   -4.3827  -10.7443   68.0392 C   0  0  0  0  0  0  0  0  0  0  0  0
   -0.8453  -13.5222   62.8547 N   0  0  0  0  0  0  0  0  0  0  0  0
   -1.2681  -14.8649   62.7623 C   0  0  0  0  0  0  0  0  0  0  0  0
   -0.8895  -15.5948   61.7874 N   0  0  0  0  0  4  0  0  0  0  0  0
   -2.1640  -15.4091   63.7686 C   0  0  0  0  0  0  0  0  0  0  0  0
   -2.9428  -16.5135   63.4500 C   0  0  0  0  0  0  0  0  0  0  0  0
   -3.8257  -17.0657   64.3417 C   0  0  0  0  0  0  0  0  0  0  0  0
   -3.9754  -16.5260   65.6278 C   0  0  0  0  0  0  0  0  0  0  0  0
   -4.8891  -17.1211   66.5300 N   0  0  0  0  0  0  0  0  0  0  0  0
   -4.9995  -16.7615   67.9095 C   0  0  0  0  0  0  0  0  0  0  0  0
   -5.9918  -14.8535   69.1966 N   0  0  0  0  0  0  0  0  0  0  0  0
   -6.8950  -13.8868   68.9810 C   0  0  0  0  0  0  0  0  0  0  0  0
   -6.7172  -15.1106   67.1888 N   0  0  0  0  0  0  0  0  0  0  0  0
   -6.5712  -12.7227   71.1521 C   0  0  0  0  0  0  0  0  0  0  0  0
   -7.9831  -10.9284   71.8710 C   0  0  0  0  0  0  0  0  0  0  0  0
   -8.6909  -11.0560   70.7010 C   0  0  0  0  0  0  0  0  0  0  0  0
   -1.5497  -13.7938   65.3706 O   0  0  0  0  0  0  0  0  0  0  0  0
   -2.3642  -12.3767   67.1336 C   0  0  0  0  0  0  0  0  0  0  0  0
   -3.9476  -10.6456   66.7374 C   0  0  0  0  0  0  0  0  0  0  0  0
   -3.7940  -11.6502   68.8297 N   0  0  0  0  0  0  0  0  0  0  0  0
   -2.8097  -12.4621   68.4289 C   0  0  0  0  0  0  0  0  0  0  0  0
 19  1  1  0
  1 20  2  0
  1 22  1  0
  2 21  2  0
 22  2  1  0
  3  5  2  0
 21  3  1  0
  3 23  1  0
 23  4  2  0
  4 24  1  0
  5 25  1  0
  6  7  2  0
 17  6  1  0
  7 14  1  0
  7 26  1  0
 26  8  1  0
  8 27  1  0
 27  9  2  0
  9 28  1  0
 28 10  2  0
 10 29  1  0
 12 11  1  0
 12 13  2  0
 14 12  1  0
 15 14  2  0
 16 15  1  0
 17 16  2  0
 18 17  1  0
 18 19  1  0
 20 21  1  0
 24 25  2  0
 27 30  1  0
 29 30  2  0
M  CHG  1  13   1
M  END
$$$$
