
     RDKit          3D

 30 33  0  0  0  0  0  0  0  0999 V2000
   -6.1745  -16.0893   68.3092 C   0  0  0  0  0  0  0  0  0  0  0  0
   -6.3464  -14.2258   69.4028 C   0  0  0  0  0  0  0  0  0  0  0  0
   -8.7950  -13.7212   68.8783 C   0  0  0  0  0  0  0  0  0  0  0  0
  -11.0902  -13.3843   68.1738 C   0  0  0  0  0  0  0  0  0  0  0  0
   -8.9100  -12.5898   69.6593 C   0  0  0  0  0  0  0  0  0  0  0  0
   -3.7686  -15.5823   66.1194 C   0  0  0  0  0  0  0  0  0  0  0  0
   -2.7512  -14.9488   65.4055 C   0  0  0  0  0  0  0  0  0  0  0  0
   -2.3006  -13.1355   67.0411 C   0  0  0  0  0  0  0  0  0  0  0  0
   -0.4201  -13.1119   68.6320 C   0  0  0  0  0  0  0  0  0  0  0  0
    1.1636  -11.3348   68.6757 C   0  0  0  0  0  0  0  0  0  0  0  0
   -0.9170  -13.4878   63.6250 N   0  0  0  0  0  0  0  0  0  0  0  0
   -1.4085  -14.7672   63.2907 C   0  0  0  0  0  0  0  0  0  0  0  0
   -0.9763  -15.3740   62.2555 N   0  0  0  0  0  4  0  0  0  0  0  0
   -2.4345  -15.3831   64.1150 C   0  0  0  0  0  0  0  0  0  0  0  0
   -3.1639  -16.4460   63.5995 C   0  0  0  0  0  0  0  0  0  0  0  0
   -4.1613  -17.0603   64.3119 C   0  0  0  0  0  0  0  0  0  0  0  0
   -4.4849  -16.6299   65.6071 C   0  0  0  0  0  0  0  0  0  0  0  0
   -5.5143  -17.2874   66.3219 N   0  0  0  0  0  0  0  0  0  0  0  0
   -5.5944  -17.3315   67.7488 C   0  0  0  0  0  0  0  0  0  0  0  0
   -7.4104  -15.6520   68.1527 N   0  0  0  0  0  0  0  0  0  0  0  0
   -7.5509  -14.4974   68.8192 C   0  0  0  0  0  0  0  0  0  0  0  0
   -5.5141  -15.2247   69.0719 N   0  0  0  0  0  0  0  0  0  0  0  0
   -9.9079  -14.0900   68.1471 C   0  0  0  0  0  0  0  0  0  0  0  0
  -11.1787  -12.2386   68.9761 C   0  0  0  0  0  0  0  0  0  0  0  0
  -10.0839  -11.8545   69.7111 C   0  0  0  0  0  0  0  0  0  0  0  0
   -2.0430  -13.9179   65.9186 O   0  0  0  0  0  0  0  0  0  0  0  0
   -1.0874  -12.4910   67.6010 C   0  0  0  0  0  0  0  0  0  0  0  0
    0.7028  -12.5345   69.1676 C   0  0  0  0  0  0  0  0  0  0  0  0
    0.4840  -10.7663   67.6722 N   0  0  0  0  0  0  0  0  0  0  0  0
   -0.6145  -11.2949   67.1222 C   0  0  0  0  0  0  0  0  0  0  0  0
 19  1  1  0
  1 20  2  0
  1 22  1  0
  2 21  2  0
 22  2  1  0
  3  5  2  0
 21  3  1  0
  3 23  1  0
 23  4  2  0
  4 24  1  0
  5 25  1  0
  6  7  2  0
 17  6  1  0
  7 14  1  0
  7 26  1  0
 26  8  1  0
  8 27  1  0
 27  9  2  0
  9 28  1  0
 28 10  2  0
 10 29  1  0
 12 11  1  0
 12 13  2  0
 14 12  1  0
 15 14  2  0
 16 15  1  0
 17 16  2  0
 18 17  1  0
 18 19  1  0
 20 21  1  0
 24 25  2  0
 27 30  1  0
 29 30  2  0
M  CHG  1  13   1
M  END
$$$$
