
     RDKit          3D

 30 33  0  0  0  0  0  0  0  0999 V2000
   -7.2880  -16.6957   67.1875 C   0  0  0  0  0  0  0  0  0  0  0  0
   -8.1796  -14.8895   67.9880 C   0  0  0  0  0  0  0  0  0  0  0  0
  -10.6286  -15.4668   67.5467 C   0  0  0  0  0  0  0  0  0  0  0  0
  -12.5097  -13.9908   67.9476 C   0  0  0  0  0  0  0  0  0  0  0  0
  -11.5277  -16.4543   67.2003 C   0  0  0  0  0  0  0  0  0  0  0  0
   -3.5939  -15.3144   66.4234 C   0  0  0  0  0  0  0  0  0  0  0  0
   -2.7695  -14.6510   65.5144 C   0  0  0  0  0  0  0  0  0  0  0  0
   -2.8589  -12.3159   66.3542 C   0  0  0  0  0  0  0  0  0  0  0  0
   -0.8555  -12.3063   67.7875 C   0  0  0  0  0  0  0  0  0  0  0  0
   -0.5999  -10.7551   69.5754 C   0  0  0  0  0  0  0  0  0  0  0  0
   -1.3174  -13.2575   63.3752 N   0  0  0  0  0  0  0  0  0  0  0  0
   -1.6153  -14.6334   63.2837 C   0  0  0  0  0  0  0  0  0  0  0  0
   -1.1819  -15.3234   62.3026 N   0  0  0  0  0  4  0  0  0  0  0  0
   -2.4453  -15.2600   64.2985 C   0  0  0  0  0  0  0  0  0  0  0  0
   -2.9712  -16.5214   64.0534 C   0  0  0  0  0  0  0  0  0  0  0  0
   -3.7800  -17.1628   64.9556 C   0  0  0  0  0  0  0  0  0  0  0  0
   -4.1098  -16.5579   66.1774 C   0  0  0  0  0  0  0  0  0  0  0  0
   -4.9410  -17.2465   67.0927 N   0  0  0  0  0  0  0  0  0  0  0  0
   -6.2659  -17.6915   66.7908 C   0  0  0  0  0  0  0  0  0  0  0  0
   -8.5960  -16.8034   67.0432 N   0  0  0  0  0  0  0  0  0  0  0  0
   -9.1797  -15.6993   67.5304 C   0  0  0  0  0  0  0  0  0  0  0  0
   -7.0215  -15.5287   67.7640 N   0  0  0  0  0  0  0  0  0  0  0  0
  -11.1565  -14.2444   67.9160 C   0  0  0  0  0  0  0  0  0  0  0  0
  -13.4002  -15.0126   67.5908 C   0  0  0  0  0  0  0  0  0  0  0  0
  -12.8963  -16.2354   67.2204 C   0  0  0  0  0  0  0  0  0  0  0  0
   -2.2579  -13.4250   65.7649 O   0  0  0  0  0  0  0  0  0  0  0  0
   -2.0799  -11.7554   67.4855 C   0  0  0  0  0  0  0  0  0  0  0  0
   -0.1178  -11.8068   68.8303 C   0  0  0  0  0  0  0  0  0  0  0  0
   -1.7950  -10.2498   69.2465 N   0  0  0  0  0  0  0  0  0  0  0  0
   -2.5460  -10.7071   68.2388 C   0  0  0  0  0  0  0  0  0  0  0  0
 19  1  1  0
  1 20  2  0
  1 22  1  0
  2 21  2  0
 22  2  1  0
  3  5  2  0
 21  3  1  0
  3 23  1  0
 23  4  2  0
  4 24  1  0
  5 25  1  0
  6  7  2  0
 17  6  1  0
  7 14  1  0
  7 26  1  0
 26  8  1  0
  8 27  1  0
 27  9  2  0
  9 28  1  0
 28 10  2  0
 10 29  1  0
 12 11  1  0
 12 13  2  0
 14 12  1  0
 15 14  2  0
 16 15  1  0
 17 16  2  0
 18 17  1  0
 18 19  1  0
 20 21  1  0
 24 25  2  0
 27 30  1  0
 29 30  2  0
M  CHG  1  13   1
M  END
$$$$
