
     RDKit          3D

 30 33  0  0  0  0  0  0  0  0999 V2000
   -4.5897  -17.0190   68.3136 C   0  0  0  0  0  0  0  0  0  0  0  0
   -3.0154  -17.0419   69.8032 C   0  0  0  0  0  0  0  0  0  0  0  0
   -4.1990  -15.6702   71.6040 C   0  0  0  0  0  0  0  0  0  0  0  0
   -5.2517  -14.0022   73.0138 C   0  0  0  0  0  0  0  0  0  0  0  0
   -3.4221  -16.0358   72.6839 C   0  0  0  0  0  0  0  0  0  0  0  0
   -3.4411  -14.6624   65.5617 C   0  0  0  0  0  0  0  0  0  0  0  0
   -2.3317  -14.3405   64.7797 C   0  0  0  0  0  0  0  0  0  0  0  0
   -2.0547  -11.9395   65.3495 C   0  0  0  0  0  0  0  0  0  0  0  0
   -1.3289  -12.2155   67.6872 C   0  0  0  0  0  0  0  0  0  0  0  0
   -2.7327  -11.6185   69.5152 C   0  0  0  0  0  0  0  0  0  0  0  0
   -0.3768  -15.9284   61.9671 N   0  0  0  0  0  0  0  0  0  0  0  0
   -0.7946  -14.9441   62.8872 C   0  0  0  0  0  0  0  0  0  0  0  0
   -0.1730  -13.8336   62.9706 N   0  0  0  0  0  4  0  0  0  0  0  0
   -1.9218  -15.2102   63.7649 C   0  0  0  0  0  0  0  0  0  0  0  0
   -2.6552  -16.3751   63.5843 C   0  0  0  0  0  0  0  0  0  0  0  0
   -3.7436  -16.6800   64.3601 C   0  0  0  0  0  0  0  0  0  0  0  0
   -4.1610  -15.8122   65.3800 C   0  0  0  0  0  0  0  0  0  0  0  0
   -5.2837  -16.1560   66.1701 N   0  0  0  0  0  0  0  0  0  0  0  0
   -5.3252  -17.2788   67.0545 C   0  0  0  0  0  0  0  0  0  0  0  0
   -5.0226  -16.3346   69.3564 N   0  0  0  0  0  0  0  0  0  0  0  0
   -4.0699  -16.3297   70.2994 C   0  0  0  0  0  0  0  0  0  0  0  0
   -3.3627  -17.4562   68.5753 N   0  0  0  0  0  0  0  0  0  0  0  0
   -5.1056  -14.6471   71.8058 C   0  0  0  0  0  0  0  0  0  0  0  0
   -4.4490  -14.3942   74.0938 C   0  0  0  0  0  0  0  0  0  0  0  0
   -3.5414  -15.4093   73.9146 C   0  0  0  0  0  0  0  0  0  0  0  0
   -1.6208  -13.2060   64.9673 O   0  0  0  0  0  0  0  0  0  0  0  0
   -2.3087  -11.8186   66.8061 C   0  0  0  0  0  0  0  0  0  0  0  0
   -1.5412  -12.1154   69.0386 C   0  0  0  0  0  0  0  0  0  0  0  0
   -3.6575  -11.2441   68.6227 N   0  0  0  0  0  0  0  0  0  0  0  0
   -3.4912  -11.3255   67.2981 C   0  0  0  0  0  0  0  0  0  0  0  0
 19  1  1  0
  1 20  2  0
  1 22  1  0
  2 21  2  0
 22  2  1  0
  3  5  2  0
 21  3  1  0
  3 23  1  0
 23  4  2  0
  4 24  1  0
  5 25  1  0
  6  7  2  0
 17  6  1  0
  7 14  1  0
  7 26  1  0
 26  8  1  0
  8 27  1  0
 27  9  2  0
  9 28  1  0
 28 10  2  0
 10 29  1  0
 12 11  1  0
 12 13  2  0
 14 12  1  0
 15 14  2  0
 16 15  1  0
 17 16  2  0
 18 17  1  0
 18 19  1  0
 20 21  1  0
 24 25  2  0
 27 30  1  0
 29 30  2  0
M  CHG  1  13   1
M  END
$$$$
