
     RDKit          3D

 30 33  0  0  0  0  0  0  0  0999 V2000
   -5.2318  -16.9853   68.1049 C   0  0  0  0  0  0  0  0  0  0  0  0
   -4.0927  -18.2582   69.4391 C   0  0  0  0  0  0  0  0  0  0  0  0
   -3.7727  -16.5904   71.3473 C   0  0  0  0  0  0  0  0  0  0  0  0
   -3.4234  -14.8079   72.9531 C   0  0  0  0  0  0  0  0  0  0  0  0
   -3.2068  -17.4639   72.2530 C   0  0  0  0  0  0  0  0  0  0  0  0
   -3.7250  -15.1532   65.6089 C   0  0  0  0  0  0  0  0  0  0  0  0
   -2.6273  -14.5268   65.0184 C   0  0  0  0  0  0  0  0  0  0  0  0
   -2.6033  -12.4982   66.4503 C   0  0  0  0  0  0  0  0  0  0  0  0
   -1.8503  -11.2480   68.4347 C   0  0  0  0  0  0  0  0  0  0  0  0
   -0.3391  -12.1927   70.0133 C   0  0  0  0  0  0  0  0  0  0  0  0
   -0.4027  -15.0992   62.0199 N   0  0  0  0  0  0  0  0  0  0  0  0
   -0.9254  -14.4750   63.1720 C   0  0  0  0  0  0  0  0  0  0  0  0
   -0.3978  -13.4043   63.6212 N   0  0  0  0  0  4  0  0  0  0  0  0
   -2.0530  -15.0727   63.8667 C   0  0  0  0  0  0  0  0  0  0  0  0
   -2.6163  -16.2360   63.3595 C   0  0  0  0  0  0  0  0  0  0  0  0
   -3.6951  -16.8421   63.9497 C   0  0  0  0  0  0  0  0  0  0  0  0
   -4.2767  -16.3000   65.1053 C   0  0  0  0  0  0  0  0  0  0  0  0
   -5.3851  -16.9511   65.6973 N   0  0  0  0  0  0  0  0  0  0  0  0
   -5.9976  -16.5340   66.9202 C   0  0  0  0  0  0  0  0  0  0  0  0
   -4.9566  -16.2787   69.1858 N   0  0  0  0  0  0  0  0  0  0  0  0
   -4.2509  -17.0393   70.0346 C   0  0  0  0  0  0  0  0  0  0  0  0
   -4.7079  -18.1978   68.2484 N   0  0  0  0  0  0  0  0  0  0  0  0
   -3.8652  -15.2665   71.7321 C   0  0  0  0  0  0  0  0  0  0  0  0
   -2.8524  -15.7175   73.8536 C   0  0  0  0  0  0  0  0  0  0  0  0
   -2.7510  -17.0383   73.4910 C   0  0  0  0  0  0  0  0  0  0  0  0
   -2.0827  -13.3972   65.5233 O   0  0  0  0  0  0  0  0  0  0  0  0
   -1.8046  -12.4090   67.6972 C   0  0  0  0  0  0  0  0  0  0  0  0
   -1.1188  -11.1409   69.5900 C   0  0  0  0  0  0  0  0  0  0  0  0
   -0.3246  -13.3029   69.2655 N   0  0  0  0  0  0  0  0  0  0  0  0
   -1.0217  -13.4484   68.1334 C   0  0  0  0  0  0  0  0  0  0  0  0
 19  1  1  0
  1 20  2  0
  1 22  1  0
  2 21  2  0
 22  2  1  0
  3  5  2  0
 21  3  1  0
  3 23  1  0
 23  4  2  0
  4 24  1  0
  5 25  1  0
  6  7  2  0
 17  6  1  0
  7 14  1  0
  7 26  1  0
 26  8  1  0
  8 27  1  0
 27  9  2  0
  9 28  1  0
 28 10  2  0
 10 29  1  0
 12 11  1  0
 12 13  2  0
 14 12  1  0
 15 14  2  0
 16 15  1  0
 17 16  2  0
 18 17  1  0
 18 19  1  0
 20 21  1  0
 24 25  2  0
 27 30  1  0
 29 30  2  0
M  CHG  1  13   1
M  END
$$$$
