
     RDKit          3D

 30 33  0  0  0  0  0  0  0  0999 V2000
   -4.0848  -16.8485   68.6628 C   0  0  0  0  0  0  0  0  0  0  0  0
   -2.6145  -15.9538   69.9804 C   0  0  0  0  0  0  0  0  0  0  0  0
   -2.3172  -17.9213   71.5823 C   0  0  0  0  0  0  0  0  0  0  0  0
   -1.9998  -19.9715   72.8368 C   0  0  0  0  0  0  0  0  0  0  0  0
   -1.5700  -17.2663   72.5394 C   0  0  0  0  0  0  0  0  0  0  0  0
   -3.4836  -14.2541   65.7455 C   0  0  0  0  0  0  0  0  0  0  0  0
   -2.4498  -13.9206   64.8703 C   0  0  0  0  0  0  0  0  0  0  0  0
   -2.5174  -11.4455   65.0579 C   0  0  0  0  0  0  0  0  0  0  0  0
   -1.5277  -11.1306   67.2916 C   0  0  0  0  0  0  0  0  0  0  0  0
   -2.8526  -10.5344   69.1778 C   0  0  0  0  0  0  0  0  0  0  0  0
   -0.3439  -13.3233   62.9299 N   0  0  0  0  0  0  0  0  0  0  0  0
   -0.8716  -14.6262   63.0482 C   0  0  0  0  0  0  0  0  0  0  0  0
   -0.4435  -15.5661   62.2999 N   0  0  0  0  0  4  0  0  0  0  0  0
   -1.9298  -14.8906   64.0084 C   0  0  0  0  0  0  0  0  0  0  0  0
   -2.4803  -16.1638   64.0698 C   0  0  0  0  0  0  0  0  0  0  0  0
   -3.4961  -16.4787   64.9350 C   0  0  0  0  0  0  0  0  0  0  0  0
   -4.0230  -15.5106   65.8025 C   0  0  0  0  0  0  0  0  0  0  0  0
   -5.0665  -15.8660   66.6901 N   0  0  0  0  0  0  0  0  0  0  0  0
   -5.0364  -17.0153   67.5402 C   0  0  0  0  0  0  0  0  0  0  0  0
   -3.7943  -17.7391   69.5933 N   0  0  0  0  0  0  0  0  0  0  0  0
   -2.8843  -17.2160   70.4270 C   0  0  0  0  0  0  0  0  0  0  0  0
   -3.3693  -15.7522   68.8897 N   0  0  0  0  0  0  0  0  0  0  0  0
   -2.5123  -19.2772   71.7636 C   0  0  0  0  0  0  0  0  0  0  0  0
   -1.2445  -19.2805   73.7941 C   0  0  0  0  0  0  0  0  0  0  0  0
   -1.0385  -17.9323   73.6328 C   0  0  0  0  0  0  0  0  0  0  0  0
   -1.9167  -12.6792   64.8221 O   0  0  0  0  0  0  0  0  0  0  0  0
   -2.6530  -11.1223   66.4995 C   0  0  0  0  0  0  0  0  0  0  0  0
   -1.6281  -10.8373   68.6277 C   0  0  0  0  0  0  0  0  0  0  0  0
   -3.9204  -10.5377   68.3705 N   0  0  0  0  0  0  0  0  0  0  0  0
   -3.8664  -10.8183   67.0640 C   0  0  0  0  0  0  0  0  0  0  0  0
 19  1  1  0
  1 20  2  0
  1 22  1  0
  2 21  2  0
 22  2  1  0
  3  5  2  0
 21  3  1  0
  3 23  1  0
 23  4  2  0
  4 24  1  0
  5 25  1  0
  6  7  2  0
 17  6  1  0
  7 14  1  0
  7 26  1  0
 26  8  1  0
  8 27  1  0
 27  9  2  0
  9 28  1  0
 28 10  2  0
 10 29  1  0
 12 11  1  0
 12 13  2  0
 14 12  1  0
 15 14  2  0
 16 15  1  0
 17 16  2  0
 18 17  1  0
 18 19  1  0
 20 21  1  0
 24 25  2  0
 27 30  1  0
 29 30  2  0
M  CHG  1  13   1
M  END
$$$$
