
     RDKit          3D

 30 33  0  0  0  0  0  0  0  0999 V2000
   -5.9880  -15.6537   68.0297 C   0  0  0  0  0  0  0  0  0  0  0  0
   -7.7784  -14.5988   67.4135 C   0  0  0  0  0  0  0  0  0  0  0  0
   -7.9524  -12.9920   69.3918 C   0  0  0  0  0  0  0  0  0  0  0  0
   -9.8148  -11.5068   69.8427 C   0  0  0  0  0  0  0  0  0  0  0  0
   -7.2681  -12.3832   70.4236 C   0  0  0  0  0  0  0  0  0  0  0  0
   -3.2958  -15.1544   65.9478 C   0  0  0  0  0  0  0  0  0  0  0  0
   -2.4818  -14.5105   65.0158 C   0  0  0  0  0  0  0  0  0  0  0  0
   -2.5982  -12.1898   65.8918 C   0  0  0  0  0  0  0  0  0  0  0  0
   -3.5181  -12.2441   68.1762 C   0  0  0  0  0  0  0  0  0  0  0  0
   -2.1115  -12.3893   70.0916 C   0  0  0  0  0  0  0  0  0  0  0  0
   -1.0161  -13.1868   62.8461 N   0  0  0  0  0  0  0  0  0  0  0  0
   -1.2940  -14.5693   62.8036 C   0  0  0  0  0  0  0  0  0  0  0  0
   -0.8492  -15.2876   61.8482 N   0  0  0  0  0  4  0  0  0  0  0  0
   -2.1167  -15.1711   63.8391 C   0  0  0  0  0  0  0  0  0  0  0  0
   -2.5926  -16.4624   63.6552 C   0  0  0  0  0  0  0  0  0  0  0  0
   -3.3918  -17.0842   64.5794 C   0  0  0  0  0  0  0  0  0  0  0  0
   -3.7624  -16.4275   65.7622 C   0  0  0  0  0  0  0  0  0  0  0  0
   -4.5825  -17.0966   66.7018 N   0  0  0  0  0  0  0  0  0  0  0  0
   -4.8544  -16.6068   68.0173 C   0  0  0  0  0  0  0  0  0  0  0  0
   -6.2536  -14.7515   68.9565 N   0  0  0  0  0  0  0  0  0  0  0  0
   -7.3585  -14.0789   68.6046 C   0  0  0  0  0  0  0  0  0  0  0  0
   -6.9144  -15.5698   67.0810 N   0  0  0  0  0  0  0  0  0  0  0  0
   -9.2267  -12.5270   69.1288 C   0  0  0  0  0  0  0  0  0  0  0  0
   -9.0963  -10.9063   70.8855 C   0  0  0  0  0  0  0  0  0  0  0  0
   -7.8279  -11.3535   71.1636 C   0  0  0  0  0  0  0  0  0  0  0  0
   -2.0190  -13.2547   65.2069 O   0  0  0  0  0  0  0  0  0  0  0  0
   -2.4092  -12.2620   67.3614 C   0  0  0  0  0  0  0  0  0  0  0  0
   -3.3687  -12.3076   69.5382 C   0  0  0  0  0  0  0  0  0  0  0  0
   -1.0611  -12.4042   69.2618 N   0  0  0  0  0  0  0  0  0  0  0  0
   -1.1626  -12.3437   67.9296 C   0  0  0  0  0  0  0  0  0  0  0  0
 19  1  1  0
  1 20  2  0
  1 22  1  0
  2 21  2  0
 22  2  1  0
  3  5  2  0
 21  3  1  0
  3 23  1  0
 23  4  2  0
  4 24  1  0
  5 25  1  0
  6  7  2  0
 17  6  1  0
  7 14  1  0
  7 26  1  0
 26  8  1  0
  8 27  1  0
 27  9  2  0
  9 28  1  0
 28 10  2  0
 10 29  1  0
 12 11  1  0
 12 13  2  0
 14 12  1  0
 15 14  2  0
 16 15  1  0
 17 16  2  0
 18 17  1  0
 18 19  1  0
 20 21  1  0
 24 25  2  0
 27 30  1  0
 29 30  2  0
M  CHG  1  13   1
M  END
$$$$
