
     RDKit          3D

 30 33  0  0  0  0  0  0  0  0999 V2000
   -4.9980  -16.8868   68.1535 C   0  0  0  0  0  0  0  0  0  0  0  0
   -3.6116  -18.1713   69.2146 C   0  0  0  0  0  0  0  0  0  0  0  0
   -3.6659  -16.9778   71.4725 C   0  0  0  0  0  0  0  0  0  0  0  0
   -3.7261  -15.6026   73.4683 C   0  0  0  0  0  0  0  0  0  0  0  0
   -2.9155  -17.8971   72.1761 C   0  0  0  0  0  0  0  0  0  0  0  0
   -3.5748  -14.9892   65.7023 C   0  0  0  0  0  0  0  0  0  0  0  0
   -2.4513  -14.4139   65.1083 C   0  0  0  0  0  0  0  0  0  0  0  0
   -2.3647  -12.1163   66.0460 C   0  0  0  0  0  0  0  0  0  0  0  0
   -0.6383  -11.6322   67.7351 C   0  0  0  0  0  0  0  0  0  0  0  0
   -1.2021  -11.0502   69.9738 C   0  0  0  0  0  0  0  0  0  0  0  0
   -0.3104  -13.1251   63.5620 N   0  0  0  0  0  0  0  0  0  0  0  0
   -0.7814  -14.4133   63.2321 C   0  0  0  0  0  0  0  0  0  0  0  0
   -0.2203  -15.0880   62.3067 N   0  0  0  0  0  4  0  0  0  0  0  0
   -1.9312  -14.9611   63.9316 C   0  0  0  0  0  0  0  0  0  0  0  0
   -2.5729  -16.0735   63.4040 C   0  0  0  0  0  0  0  0  0  0  0  0
   -3.6763  -16.6297   63.9980 C   0  0  0  0  0  0  0  0  0  0  0  0
   -4.2039  -16.0860   65.1785 C   0  0  0  0  0  0  0  0  0  0  0  0
   -5.3395  -16.6853   65.7736 N   0  0  0  0  0  0  0  0  0  0  0  0
   -5.8415  -16.3380   67.0667 C   0  0  0  0  0  0  0  0  0  0  0  0
   -4.8853  -16.4167   69.3821 N   0  0  0  0  0  0  0  0  0  0  0  0
   -4.0325  -17.1912   70.0676 C   0  0  0  0  0  0  0  0  0  0  0  0
   -4.2230  -17.9599   68.0392 N   0  0  0  0  0  0  0  0  0  0  0  0
   -4.0549  -15.8393   72.1521 C   0  0  0  0  0  0  0  0  0  0  0  0
   -2.9626  -16.5538   74.1587 C   0  0  0  0  0  0  0  0  0  0  0  0
   -2.5657  -17.6927   73.5018 C   0  0  0  0  0  0  0  0  0  0  0  0
   -1.8303  -13.3338   65.6330 O   0  0  0  0  0  0  0  0  0  0  0  0
   -1.9752  -11.7402   67.4272 C   0  0  0  0  0  0  0  0  0  0  0  0
   -0.2534  -11.2879   69.0058 C   0  0  0  0  0  0  0  0  0  0  0  0
   -2.4907  -11.1664   69.6304 N   0  0  0  0  0  0  0  0  0  0  0  0
   -2.9084  -11.4999   68.4044 C   0  0  0  0  0  0  0  0  0  0  0  0
 19  1  1  0
  1 20  2  0
  1 22  1  0
  2 21  2  0
 22  2  1  0
  3  5  2  0
 21  3  1  0
  3 23  1  0
 23  4  2  0
  4 24  1  0
  5 25  1  0
  6  7  2  0
 17  6  1  0
  7 14  1  0
  7 26  1  0
 26  8  1  0
  8 27  1  0
 27  9  2  0
  9 28  1  0
 28 10  2  0
 10 29  1  0
 12 11  1  0
 12 13  2  0
 14 12  1  0
 15 14  2  0
 16 15  1  0
 17 16  2  0
 18 17  1  0
 18 19  1  0
 20 21  1  0
 24 25  2  0
 27 30  1  0
 29 30  2  0
M  CHG  1  13   1
M  END
$$$$
