
     RDKit          3D

 30 33  0  0  0  0  0  0  0  0999 V2000
   -5.2887  -17.0242   68.0583 C   0  0  0  0  0  0  0  0  0  0  0  0
   -3.7845  -18.1419   69.1474 C   0  0  0  0  0  0  0  0  0  0  0  0
   -4.3839  -17.3572   71.5034 C   0  0  0  0  0  0  0  0  0  0  0  0
   -3.1217  -17.8506   73.5138 C   0  0  0  0  0  0  0  0  0  0  0  0
   -5.3496  -16.7766   72.2994 C   0  0  0  0  0  0  0  0  0  0  0  0
   -3.7719  -15.0239   65.8228 C   0  0  0  0  0  0  0  0  0  0  0  0
   -2.6239  -14.3891   65.3485 C   0  0  0  0  0  0  0  0  0  0  0  0
   -2.4618  -12.6943   67.1561 C   0  0  0  0  0  0  0  0  0  0  0  0
   -0.1328  -12.1531   67.7480 C   0  0  0  0  0  0  0  0  0  0  0  0
    0.4737  -10.0310   68.6410 C   0  0  0  0  0  0  0  0  0  0  0  0
   -0.3265  -13.0329   64.1410 N   0  0  0  0  0  0  0  0  0  0  0  0
   -0.8176  -14.2438   63.6094 C   0  0  0  0  0  0  0  0  0  0  0  0
   -0.2446  -14.7882   62.6084 N   0  0  0  0  0  4  0  0  0  0  0  0
   -2.0006  -14.8576   64.1881 C   0  0  0  0  0  0  0  0  0  0  0  0
   -2.5682  -15.9548   63.5544 C   0  0  0  0  0  0  0  0  0  0  0  0
   -3.6968  -16.5700   64.0312 C   0  0  0  0  0  0  0  0  0  0  0  0
   -4.3277  -16.1055   65.1947 C   0  0  0  0  0  0  0  0  0  0  0  0
   -5.4872  -16.7645   65.6678 N   0  0  0  0  0  0  0  0  0  0  0  0
   -6.0971  -16.4994   66.9337 C   0  0  0  0  0  0  0  0  0  0  0  0
   -5.4364  -16.7407   69.3393 N   0  0  0  0  0  0  0  0  0  0  0  0
   -4.5187  -17.4182   70.0433 C   0  0  0  0  0  0  0  0  0  0  0  0
   -4.2808  -17.8802   67.9287 N   0  0  0  0  0  0  0  0  0  0  0  0
   -3.2806  -17.8853   72.1463 C   0  0  0  0  0  0  0  0  0  0  0  0
   -4.1189  -17.2546   74.2979 C   0  0  0  0  0  0  0  0  0  0  0  0
   -5.2238  -16.7234   73.6788 C   0  0  0  0  0  0  0  0  0  0  0  0
   -2.0758  -13.3246   65.9761 O   0  0  0  0  0  0  0  0  0  0  0  0
   -1.4459  -11.7474   67.6777 C   0  0  0  0  0  0  0  0  0  0  0  0
    0.8243  -11.2962   68.2287 C   0  0  0  0  0  0  0  0  0  0  0  0
   -0.8147   -9.6782   68.5547 N   0  0  0  0  0  0  0  0  0  0  0  0
   -1.7785  -10.4824   68.0931 C   0  0  0  0  0  0  0  0  0  0  0  0
 19  1  1  0
  1 20  2  0
  1 22  1  0
  2 21  2  0
 22  2  1  0
  3  5  2  0
 21  3  1  0
  3 23  1  0
 23  4  2  0
  4 24  1  0
  5 25  1  0
  6  7  2  0
 17  6  1  0
  7 14  1  0
  7 26  1  0
 26  8  1  0
  8 27  1  0
 27  9  2  0
  9 28  1  0
 28 10  2  0
 10 29  1  0
 12 11  1  0
 12 13  2  0
 14 12  1  0
 15 14  2  0
 16 15  1  0
 17 16  2  0
 18 17  1  0
 18 19  1  0
 20 21  1  0
 24 25  2  0
 27 30  1  0
 29 30  2  0
M  CHG  1  13   1
M  END
$$$$
