
     RDKit          3D

 30 33  0  0  0  0  0  0  0  0999 V2000
   -6.2840  -16.2608   67.7561 C   0  0  0  0  0  0  0  0  0  0  0  0
   -7.8286  -14.7510   67.5742 C   0  0  0  0  0  0  0  0  0  0  0  0
   -6.8840  -13.0622   69.2418 C   0  0  0  0  0  0  0  0  0  0  0  0
   -8.0291  -11.0877   70.0591 C   0  0  0  0  0  0  0  0  0  0  0  0
   -5.7403  -12.6093   69.8665 C   0  0  0  0  0  0  0  0  0  0  0  0
   -3.5632  -15.8800   66.0045 C   0  0  0  0  0  0  0  0  0  0  0  0
   -2.5672  -15.1809   65.3224 C   0  0  0  0  0  0  0  0  0  0  0  0
   -2.4256  -13.1713   66.7741 C   0  0  0  0  0  0  0  0  0  0  0  0
   -0.6413  -12.9307   68.4552 C   0  0  0  0  0  0  0  0  0  0  0  0
    0.6493  -10.9383   68.6381 C   0  0  0  0  0  0  0  0  0  0  0  0
   -0.8326  -13.5777   63.5484 N   0  0  0  0  0  0  0  0  0  0  0  0
   -1.1654  -14.9168   63.2551 C   0  0  0  0  0  0  0  0  0  0  0  0
   -0.6043  -15.5231   62.2835 N   0  0  0  0  0  4  0  0  0  0  0  0
   -2.1751  -15.5984   64.0472 C   0  0  0  0  0  0  0  0  0  0  0  0
   -2.8102  -16.7121   63.5141 C   0  0  0  0  0  0  0  0  0  0  0  0
   -3.7875  -17.3907   64.1953 C   0  0  0  0  0  0  0  0  0  0  0  0
   -4.1863  -16.9774   65.4750 C   0  0  0  0  0  0  0  0  0  0  0  0
   -5.1927  -17.7013   66.1577 N   0  0  0  0  0  0  0  0  0  0  0  0
   -5.5191  -17.5100   67.5366 C   0  0  0  0  0  0  0  0  0  0  0  0
   -5.9678  -15.2719   68.5718 N   0  0  0  0  0  0  0  0  0  0  0  0
   -6.9056  -14.3181   68.4830 C   0  0  0  0  0  0  0  0  0  0  0  0
   -7.4208  -15.9534   67.1407 N   0  0  0  0  0  0  0  0  0  0  0  0
   -8.0126  -12.2737   69.3595 C   0  0  0  0  0  0  0  0  0  0  0  0
   -6.8526  -10.6517   70.6837 C   0  0  0  0  0  0  0  0  0  0  0  0
   -5.7194  -11.4205   70.5791 C   0  0  0  0  0  0  0  0  0  0  0  0
   -1.9509  -14.1007   65.8526 O   0  0  0  0  0  0  0  0  0  0  0  0
   -1.3503  -12.3750   67.4149 C   0  0  0  0  0  0  0  0  0  0  0  0
    0.3561  -12.2133   69.0650 C   0  0  0  0  0  0  0  0  0  0  0  0
   -0.0651  -10.4375   67.6229 N   0  0  0  0  0  0  0  0  0  0  0  0
   -1.0453  -11.1024   67.0016 C   0  0  0  0  0  0  0  0  0  0  0  0
 19  1  1  0
  1 20  2  0
  1 22  1  0
  2 21  2  0
 22  2  1  0
  3  5  2  0
 21  3  1  0
  3 23  1  0
 23  4  2  0
  4 24  1  0
  5 25  1  0
  6  7  2  0
 17  6  1  0
  7 14  1  0
  7 26  1  0
 26  8  1  0
  8 27  1  0
 27  9  2  0
  9 28  1  0
 28 10  2  0
 10 29  1  0
 12 11  1  0
 12 13  2  0
 14 12  1  0
 15 14  2  0
 16 15  1  0
 17 16  2  0
 18 17  1  0
 18 19  1  0
 20 21  1  0
 24 25  2  0
 27 30  1  0
 29 30  2  0
M  CHG  1  13   1
M  END
$$$$
