
     RDKit          3D

 30 33  0  0  0  0  0  0  0  0999 V2000
   -2.9335  -13.3654   69.2897 C   0  0  0  0  0  0  0  0  0  0  0  0
   -2.4661  -15.1089   70.4895 C   0  0  0  0  0  0  0  0  0  0  0  0
   -0.0870  -14.4624   71.1585 C   0  0  0  0  0  0  0  0  0  0  0  0
    2.2256  -13.8023   71.4653 C   0  0  0  0  0  0  0  0  0  0  0  0
    0.1068  -15.4407   72.1119 C   0  0  0  0  0  0  0  0  0  0  0  0
   -2.9687  -13.9838   66.0010 C   0  0  0  0  0  0  0  0  0  0  0  0
   -2.5341  -14.7621   64.9280 C   0  0  0  0  0  0  0  0  0  0  0  0
   -4.3723  -16.4142   64.6879 C   0  0  0  0  0  0  0  0  0  0  0  0
   -3.9753  -18.1539   66.3861 C   0  0  0  0  0  0  0  0  0  0  0  0
   -5.4087  -18.4194   68.2685 C   0  0  0  0  0  0  0  0  0  0  0  0
   -1.5281  -16.3044   62.6551 N   0  0  0  0  0  0  0  0  0  0  0  0
   -1.0069  -15.0275   62.9517 C   0  0  0  0  0  0  0  0  0  0  0  0
   -0.0566  -14.5407   62.2542 N   0  0  0  0  0  4  0  0  0  0  0  0
   -1.5369  -14.2764   64.0770 C   0  0  0  0  0  0  0  0  0  0  0  0
   -1.0199  -13.0169   64.3490 C   0  0  0  0  0  0  0  0  0  0  0  0
   -1.4562  -12.2617   65.4069 C   0  0  0  0  0  0  0  0  0  0  0  0
   -2.4562  -12.7425   66.2650 C   0  0  0  0  0  0  0  0  0  0  0  0
   -2.8921  -11.9382   67.3448 N   0  0  0  0  0  0  0  0  0  0  0  0
   -3.6858  -12.4210   68.4318 C   0  0  0  0  0  0  0  0  0  0  0  0
   -1.7006  -13.2171   69.7384 N   0  0  0  0  0  0  0  0  0  0  0  0
   -1.3794  -14.2817   70.4871 C   0  0  0  0  0  0  0  0  0  0  0  0
   -3.4118  -14.5193   69.7425 N   0  0  0  0  0  0  0  0  0  0  0  0
    0.9971  -13.6595   70.8596 C   0  0  0  0  0  0  0  0  0  0  0  0
    2.3940  -14.8047   72.4302 C   0  0  0  0  0  0  0  0  0  0  0  0
    1.3291  -15.6139   72.7423 C   0  0  0  0  0  0  0  0  0  0  0  0
   -3.0478  -15.9853   64.6684 O   0  0  0  0  0  0  0  0  0  0  0  0
   -4.7493  -17.1047   65.9457 C   0  0  0  0  0  0  0  0  0  0  0  0
   -4.3050  -18.8093   67.5450 C   0  0  0  0  0  0  0  0  0  0  0  0
   -6.1327  -17.3940   67.8035 N   0  0  0  0  0  0  0  0  0  0  0  0
   -5.8467  -16.7287   66.6791 C   0  0  0  0  0  0  0  0  0  0  0  0
 19  1  1  0
  1 20  2  0
  1 22  1  0
  2 21  2  0
 22  2  1  0
  3  5  2  0
 21  3  1  0
  3 23  1  0
 23  4  2  0
  4 24  1  0
  5 25  1  0
  6  7  2  0
 17  6  1  0
  7 14  1  0
  7 26  1  0
 26  8  1  0
  8 27  1  0
 27  9  2  0
  9 28  1  0
 28 10  2  0
 10 29  1  0
 12 11  1  0
 12 13  2  0
 14 12  1  0
 15 14  2  0
 16 15  1  0
 17 16  2  0
 18 17  1  0
 18 19  1  0
 20 21  1  0
 24 25  2  0
 27 30  1  0
 29 30  2  0
M  CHG  1  13   1
M  END
$$$$
