
     RDKit          3D

 35 38  0  0  0  0  0  0  0  0999 V2000
  -16.7686  -36.9387   -9.2943 C   0  0  0  0  0  0  0  0  0  0  0  0
  -16.8061  -38.4552   -8.9949 C   0  0  1  0  0  0  0  0  0  0  0  0
  -15.5148  -39.6470   -7.1136 C   0  0  0  0  0  0  0  0  0  0  0  0
  -14.6318  -39.4985   -9.7062 C   0  0  0  0  0  0  0  0  0  0  0  0
  -16.1144  -39.2136  -10.0825 C   0  0  2  0  0  0  0  0  0  0  0  0
  -15.9591  -38.4247  -11.3824 C   0  0  0  0  0  0  0  0  0  0  0  0
  -16.2430  -39.2037  -12.6184 C   0  0  0  0  0  0  0  0  0  0  0  0
  -16.2070  -38.5766   -7.6799 N   0  0  0  0  0  0  0  0  0  0  0  0
  -15.4596  -39.9737   -5.8845 N   0  0  0  0  0  0  0  0  0  0  0  0
  -16.2219  -41.6106  -13.7120 O   0  0  0  0  0  0  0  0  0  0  0  0
  -15.6940  -41.5071  -11.0503 C   0  0  0  0  0  0  0  0  0  0  0  0
  -14.0548  -40.7630  -13.1098 O   0  0  0  0  0  0  0  0  0  0  0  0
  -20.1356  -41.1269   -6.4277 N   0  0  0  0  0  0  0  0  0  0  0  0
  -16.6699  -40.6026  -10.3184 C   0  0  0  0  0  0  0  0  0  0  0  0
  -18.2480  -38.8601   -8.7707 C   0  0  0  0  0  0  0  0  0  0  0  0
  -18.5850  -39.7574   -7.7500 C   0  0  0  0  0  0  0  0  0  0  0  0
  -19.8563  -40.2089   -7.4863 C   0  0  0  0  0  0  0  0  0  0  0  0
  -21.1259  -40.8597   -5.4535 C   0  0  0  0  0  0  0  0  0  0  0  0
  -21.1593  -41.4556   -4.1131 C   0  0  0  0  0  0  0  0  0  0  0  0
  -22.1421  -43.0136   -2.6661 C   0  0  0  0  0  0  0  0  0  0  0  0
  -19.0743  -37.4921  -10.5605 F   0  0  0  0  0  0  0  0  0  0  0  0
  -19.2594  -38.3943   -9.5663 C   0  0  0  0  0  0  0  0  0  0  0  0
  -15.4838  -40.8059  -12.6675 S   0  0  2  0  0  6  0  0  0  0  0  0
  -14.5927  -40.6463   -8.2817 S   0  0  0  0  0  0  0  0  0  0  0  0
  -20.5593  -38.8423   -9.3144 C   0  0  0  0  0  0  0  0  0  0  0  0
  -20.8565  -39.7247   -8.3048 C   0  0  0  0  0  0  0  0  0  0  0  0
  -22.0424  -40.0601   -5.7460 O   0  0  0  0  0  0  0  0  0  0  0  0
  -20.3178  -41.0591   -3.1229 C   0  0  0  0  0  0  0  0  0  0  0  0
  -20.3860  -41.6280   -1.9267 N   0  0  0  0  0  0  0  0  0  0  0  0
  -21.2833  -42.6253   -1.6166 C   0  0  0  0  0  0  0  0  0  0  0  0
  -22.0540  -42.4273   -3.8578 N   0  0  0  0  0  0  0  0  0  0  0  0
  -21.3301  -43.1647   -0.4414 O   0  0  0  0  0  0  0  0  0  0  0  0
  -21.3529  -43.6731    0.7402 C   0  0  0  0  0  0  0  0  0  0  0  0
  -20.4724  -43.1309    1.6968 F   0  0  0  0  0  0  0  0  0  0  0  0
  -14.6535  -40.3499   -5.3863 H   0  0  0  0  0  0  0  0  0  0  0  0
  2  1  1  6
  2  5  1  0
  2  8  1  0
 15  2  1  0
  8  3  1  0
  3  9  2  0
  3 24  1  0
  5  4  1  1
  4 24  1  0
  5  6  1  0
  5 14  1  0
  6  7  1  0
 23  7  1  1
 23 10  2  0
 14 11  1  0
 11 23  1  0
 23 12  2  0
 13 17  1  0
 18 13  1  0
 16 15  2  0
 15 22  1  0
 17 16  1  0
 17 26  2  0
 19 18  1  0
 18 27  2  0
 19 28  1  0
 31 19  2  0
 20 30  2  0
 20 31  1  0
 22 21  1  0
 22 25  2  0
 25 26  1  0
 28 29  2  0
 29 30  1  0
 30 32  1  0
 32 33  1  0
 33 34  1  0
  9 35  1  0
M  END
$$$$
