
     RDKit          3D

 35 38  0  0  0  0  0  0  0  0999 V2000
  -17.0267  -37.1226   -9.4086 C   0  0  0  0  0  0  0  0  0  0  0  0
  -17.0275  -38.5876   -8.9142 C   0  0  1  0  0  0  0  0  0  0  0  0
  -15.5311  -39.5448   -7.0511 C   0  0  0  0  0  0  0  0  0  0  0  0
  -14.9450  -39.7408   -9.7234 C   0  0  0  0  0  0  0  0  0  0  0  0
  -16.4610  -39.4878   -9.9654 C   0  0  2  0  0  0  0  0  0  0  0  0
  -16.4540  -38.8738  -11.3653 C   0  0  0  0  0  0  0  0  0  0  0  0
  -16.8735  -39.8012  -12.4512 C   0  0  0  0  0  0  0  0  0  0  0  0
  -16.2844  -38.5470   -7.6696 N   0  0  0  0  0  0  0  0  0  0  0  0
  -15.3376  -39.7120   -5.8041 N   0  0  0  0  0  0  0  0  0  0  0  0
  -16.9709  -42.3284  -13.2214 O   0  0  0  0  0  0  0  0  0  0  0  0
  -16.1477  -41.8915  -10.6708 C   0  0  0  0  0  0  0  0  0  0  0  0
  -14.7514  -41.4381  -12.9790 O   0  0  0  0  0  0  0  0  0  0  0  0
  -20.0736  -40.4932   -5.4639 N   0  0  0  0  0  0  0  0  0  0  0  0
  -17.0369  -40.8884   -9.9571 C   0  0  0  0  0  0  0  0  0  0  0  0
  -18.4344  -38.9421   -8.4803 C   0  0  0  0  0  0  0  0  0  0  0  0
  -18.6683  -39.5214   -7.2272 C   0  0  0  0  0  0  0  0  0  0  0  0
  -19.9006  -39.9060   -6.7549 C   0  0  0  0  0  0  0  0  0  0  0  0
  -21.3027  -41.0712   -5.0684 C   0  0  0  0  0  0  0  0  0  0  0  0
  -21.5095  -41.8213   -3.8245 C   0  0  0  0  0  0  0  0  0  0  0  0
  -20.7196  -42.3595   -1.6858 C   0  0  0  0  0  0  0  0  0  0  0  0
  -19.4293  -38.1525  -10.5161 F   0  0  0  0  0  0  0  0  0  0  0  0
  -19.5132  -38.7408   -9.2982 C   0  0  0  0  0  0  0  0  0  0  0  0
  -16.1216  -41.4059  -12.3781 S   0  0  2  0  0  6  0  0  0  0  0  0
  -14.7441  -40.6971   -8.1763 S   0  0  0  0  0  0  0  0  0  0  0  0
  -20.7749  -39.1261   -8.8360 C   0  0  0  0  0  0  0  0  0  0  0  0
  -20.9704  -39.6933   -7.6005 C   0  0  0  0  0  0  0  0  0  0  0  0
  -22.2892  -40.9388   -5.8262 O   0  0  0  0  0  0  0  0  0  0  0  0
  -22.5889  -42.6239   -3.6333 C   0  0  0  0  0  0  0  0  0  0  0  0
  -22.7322  -43.2822   -2.4909 N   0  0  0  0  0  0  0  0  0  0  0  0
  -21.8283  -43.2006   -1.4555 C   0  0  0  0  0  0  0  0  0  0  0  0
  -20.5983  -41.7093   -2.8409 N   0  0  0  0  0  0  0  0  0  0  0  0
  -21.9908  -43.8532   -0.3501 O   0  0  0  0  0  0  0  0  0  0  0  0
  -22.1868  -44.5147    0.7358 C   0  0  0  0  0  0  0  0  0  0  0  0
  -21.1011  -45.2478    1.2538 F   0  0  0  0  0  0  0  0  0  0  0  0
  -14.5134  -39.4383   -5.2700 H   0  0  0  0  0  0  0  0  0  0  0  0
  2  1  1  6
  2  5  1  0
  2  8  1  0
 15  2  1  0
  8  3  1  0
  3  9  2  0
  3 24  1  0
  5  4  1  1
  4 24  1  0
  5  6  1  0
  5 14  1  0
  6  7  1  0
 23  7  1  1
 23 10  2  0
 14 11  1  0
 11 23  1  0
 23 12  2  0
 13 17  1  0
 18 13  1  0
 16 15  2  0
 15 22  1  0
 17 16  1  0
 17 26  2  0
 19 18  1  0
 18 27  2  0
 19 28  1  0
 31 19  2  0
 20 30  2  0
 20 31  1  0
 22 21  1  0
 22 25  2  0
 25 26  1  0
 28 29  2  0
 29 30  1  0
 30 32  1  0
 32 33  1  0
 33 34  1  0
  9 35  1  0
M  END
$$$$
