
     RDKit          3D

 35 38  0  0  0  0  0  0  0  0999 V2000
  -16.8912  -37.1225   -9.4352 C   0  0  0  0  0  0  0  0  0  0  0  0
  -17.1746  -38.5383   -8.8821 C   0  0  1  0  0  0  0  0  0  0  0  0
  -16.0254  -39.6127   -6.8445 C   0  0  0  0  0  0  0  0  0  0  0  0
  -15.2444  -40.0510   -9.4370 C   0  0  0  0  0  0  0  0  0  0  0  0
  -16.6713  -39.5753   -9.8349 C   0  0  2  0  0  0  0  0  0  0  0  0
  -16.4402  -39.0510  -11.2521 C   0  0  0  0  0  0  0  0  0  0  0  0
  -16.9072  -39.9606  -12.3336 C   0  0  0  0  0  0  0  0  0  0  0  0
  -16.5482  -38.5451   -7.5743 N   0  0  0  0  0  0  0  0  0  0  0  0
  -15.9732  -39.7370   -5.5787 N   0  0  0  0  0  0  0  0  0  0  0  0
  -17.3464  -42.4802  -13.0029 O   0  0  0  0  0  0  0  0  0  0  0  0
  -16.6926  -42.0345  -10.4052 C   0  0  0  0  0  0  0  0  0  0  0  0
  -15.0419  -41.9402  -12.5844 O   0  0  0  0  0  0  0  0  0  0  0  0
  -20.7837  -39.5745   -5.6088 N   0  0  0  0  0  0  0  0  0  0  0  0
  -17.4662  -40.8643   -9.8236 C   0  0  0  0  0  0  0  0  0  0  0  0
  -18.6534  -38.6403   -8.5718 C   0  0  0  0  0  0  0  0  0  0  0  0
  -19.0886  -39.0261   -7.2982 C   0  0  0  0  0  0  0  0  0  0  0  0
  -20.4036  -39.1772   -6.9275 C   0  0  0  0  0  0  0  0  0  0  0  0
  -21.5641  -40.7313   -5.3764 C   0  0  0  0  0  0  0  0  0  0  0  0
  -21.5389  -41.5197   -4.1392 C   0  0  0  0  0  0  0  0  0  0  0  0
  -20.3905  -42.0823   -2.1765 C   0  0  0  0  0  0  0  0  0  0  0  0
  -19.3220  -37.9728  -10.7776 F   0  0  0  0  0  0  0  0  0  0  0  0
  -19.6077  -38.3924   -9.5210 C   0  0  0  0  0  0  0  0  0  0  0  0
  -16.4364  -41.6573  -12.1208 S   0  0  2  0  0  6  0  0  0  0  0  0
  -15.3401  -40.9372   -7.8390 S   0  0  0  0  0  0  0  0  0  0  0  0
  -20.9508  -38.5413   -9.1635 C   0  0  0  0  0  0  0  0  0  0  0  0
  -21.3448  -38.9226   -7.9043 C   0  0  0  0  0  0  0  0  0  0  0  0
  -22.3334  -41.1176   -6.2841 O   0  0  0  0  0  0  0  0  0  0  0  0
  -22.5458  -42.3658   -3.7986 C   0  0  0  0  0  0  0  0  0  0  0  0
  -22.4777  -43.0575   -2.6690 N   0  0  0  0  0  0  0  0  0  0  0  0
  -21.4186  -42.9690   -1.7938 C   0  0  0  0  0  0  0  0  0  0  0  0
  -20.4821  -41.3992   -3.3153 N   0  0  0  0  0  0  0  0  0  0  0  0
  -21.3756  -43.6547   -0.6973 O   0  0  0  0  0  0  0  0  0  0  0  0
  -21.3635  -44.3163    0.4060 C   0  0  0  0  0  0  0  0  0  0  0  0
  -22.4580  -44.1463    1.2764 F   0  0  0  0  0  0  0  0  0  0  0  0
  -15.1354  -39.7403   -4.9976 H   0  0  0  0  0  0  0  0  0  0  0  0
  2  1  1  6
  2  5  1  0
  2  8  1  0
 15  2  1  0
  8  3  1  0
  3  9  2  0
  3 24  1  0
  5  4  1  1
  4 24  1  0
  5  6  1  0
  5 14  1  0
  6  7  1  0
 23  7  1  1
 23 10  2  0
 14 11  1  0
 11 23  1  0
 23 12  2  0
 13 17  1  0
 18 13  1  0
 16 15  2  0
 15 22  1  0
 17 16  1  0
 17 26  2  0
 19 18  1  0
 18 27  2  0
 19 28  1  0
 31 19  2  0
 20 30  2  0
 20 31  1  0
 22 21  1  0
 22 25  2  0
 25 26  1  0
 28 29  2  0
 29 30  1  0
 30 32  1  0
 32 33  1  0
 33 34  1  0
  9 35  1  0
M  END
$$$$
