
     RDKit          3D

 35 38  0  0  0  0  0  0  0  0999 V2000
  -17.0435  -36.8377   -9.0927 C   0  0  0  0  0  0  0  0  0  0  0  0
  -17.1236  -38.3657   -8.8702 C   0  0  1  0  0  0  0  0  0  0  0  0
  -16.0901  -39.6520   -6.8944 C   0  0  0  0  0  0  0  0  0  0  0  0
  -14.8785  -39.3947   -9.3416 C   0  0  0  0  0  0  0  0  0  0  0  0
  -16.2991  -39.0804   -9.8929 C   0  0  2  0  0  0  0  0  0  0  0  0
  -15.9746  -38.2351  -11.1244 C   0  0  0  0  0  0  0  0  0  0  0  0
  -16.0983  -38.9553  -12.4210 C   0  0  0  0  0  0  0  0  0  0  0  0
  -16.7002  -38.5513   -7.4958 N   0  0  0  0  0  0  0  0  0  0  0  0
  -16.1953  -40.0340   -5.6847 N   0  0  0  0  0  0  0  0  0  0  0  0
  -15.9424  -41.3107  -13.6116 O   0  0  0  0  0  0  0  0  0  0  0  0
  -15.7632  -41.3316  -10.9021 C   0  0  0  0  0  0  0  0  0  0  0  0
  -13.8692  -40.5098  -12.6964 O   0  0  0  0  0  0  0  0  0  0  0  0
  -20.8053  -40.9689   -6.7530 N   0  0  0  0  0  0  0  0  0  0  0  0
  -16.8232  -40.4525  -10.2618 C   0  0  0  0  0  0  0  0  0  0  0  0
  -18.5835  -38.7677   -8.8529 C   0  0  0  0  0  0  0  0  0  0  0  0
  -19.0715  -39.6352   -7.8680 C   0  0  0  0  0  0  0  0  0  0  0  0
  -20.3686  -40.0822   -7.7847 C   0  0  0  0  0  0  0  0  0  0  0  0
  -21.5161  -40.5021   -5.6226 C   0  0  0  0  0  0  0  0  0  0  0  0
  -21.4927  -41.1394   -4.3011 C   0  0  0  0  0  0  0  0  0  0  0  0
  -20.2239  -42.1867   -2.6335 C   0  0  0  0  0  0  0  0  0  0  0  0
  -19.1295  -37.4561  -10.7866 F   0  0  0  0  0  0  0  0  0  0  0  0
  -19.4633  -38.3287   -9.8050 C   0  0  0  0  0  0  0  0  0  0  0  0
  -15.3435  -40.5602  -12.4448 S   0  0  2  0  0  6  0  0  0  0  0  0
  -15.0273  -40.6057   -7.9779 S   0  0  0  0  0  0  0  0  0  0  0  0
  -20.7870  -38.7728   -9.7377 C   0  0  0  0  0  0  0  0  0  0  0  0
  -21.2339  -39.6254   -8.7581 C   0  0  0  0  0  0  0  0  0  0  0  0
  -22.2173  -39.4738   -5.7483 O   0  0  0  0  0  0  0  0  0  0  0  0
  -22.6126  -41.2813   -3.5452 C   0  0  0  0  0  0  0  0  0  0  0  0
  -22.5411  -41.8644   -2.3562 N   0  0  0  0  0  0  0  0  0  0  0  0
  -21.3676  -42.3496   -1.8241 C   0  0  0  0  0  0  0  0  0  0  0  0
  -20.3215  -41.5980   -3.8234 N   0  0  0  0  0  0  0  0  0  0  0  0
  -21.3239  -42.9149   -0.6610 O   0  0  0  0  0  0  0  0  0  0  0  0
  -21.2529  -43.4515    0.5061 C   0  0  0  0  0  0  0  0  0  0  0  0
  -20.2955  -42.9344    1.4008 F   0  0  0  0  0  0  0  0  0  0  0  0
  -15.4851  -39.9648   -4.9564 H   0  0  0  0  0  0  0  0  0  0  0  0
  2  1  1  6
  2  5  1  0
  2  8  1  0
 15  2  1  0
  8  3  1  0
  3  9  2  0
  3 24  1  0
  5  4  1  1
  4 24  1  0
  5  6  1  0
  5 14  1  0
  6  7  1  0
 23  7  1  1
 23 10  2  0
 14 11  1  0
 11 23  1  0
 23 12  2  0
 13 17  1  0
 18 13  1  0
 16 15  2  0
 15 22  1  0
 17 16  1  0
 17 26  2  0
 19 18  1  0
 18 27  2  0
 19 28  1  0
 31 19  2  0
 20 30  2  0
 20 31  1  0
 22 21  1  0
 22 25  2  0
 25 26  1  0
 28 29  2  0
 29 30  1  0
 30 32  1  0
 32 33  1  0
 33 34  1  0
  9 35  1  0
M  END
$$$$
