
     RDKit          3D

 35 38  0  0  0  0  0  0  0  0999 V2000
  -17.1122  -36.7760   -9.2870 C   0  0  0  0  0  0  0  0  0  0  0  0
  -17.1138  -38.2775   -8.9180 C   0  0  1  0  0  0  0  0  0  0  0  0
  -15.7241  -39.3650   -7.0437 C   0  0  0  0  0  0  0  0  0  0  0  0
  -14.9573  -39.3240   -9.6768 C   0  0  0  0  0  0  0  0  0  0  0  0
  -16.4590  -39.0760   -9.9997 C   0  0  2  0  0  0  0  0  0  0  0  0
  -16.3723  -38.3454  -11.3396 C   0  0  0  0  0  0  0  0  0  0  0  0
  -16.6981  -39.1839  -12.5252 C   0  0  0  0  0  0  0  0  0  0  0  0
  -16.4563  -38.3307   -7.6266 N   0  0  0  0  0  0  0  0  0  0  0  0
  -15.6105  -39.6342   -5.8047 N   0  0  0  0  0  0  0  0  0  0  0  0
  -16.6886  -41.6379  -13.5088 O   0  0  0  0  0  0  0  0  0  0  0  0
  -16.0468  -41.4057  -10.8804 C   0  0  0  0  0  0  0  0  0  0  0  0
  -14.5103  -40.7356  -13.0420 O   0  0  0  0  0  0  0  0  0  0  0  0
  -20.2811  -40.9301   -6.1347 N   0  0  0  0  0  0  0  0  0  0  0  0
  -17.0033  -40.4814  -10.1477 C   0  0  0  0  0  0  0  0  0  0  0  0
  -18.5384  -38.6904   -8.6121 C   0  0  0  0  0  0  0  0  0  0  0  0
  -18.8138  -39.5718   -7.5597 C   0  0  0  0  0  0  0  0  0  0  0  0
  -20.0654  -40.0292   -7.2224 C   0  0  0  0  0  0  0  0  0  0  0  0
  -21.3395  -40.7452   -5.2145 C   0  0  0  0  0  0  0  0  0  0  0  0
  -21.3984  -41.3496   -3.8788 C   0  0  0  0  0  0  0  0  0  0  0  0
  -20.3290  -41.7210   -1.8279 C   0  0  0  0  0  0  0  0  0  0  0  0
  -19.4689  -37.3621  -10.3807 F   0  0  0  0  0  0  0  0  0  0  0  0
  -19.5939  -38.2476   -9.3624 C   0  0  0  0  0  0  0  0  0  0  0  0
  -15.9178  -40.7767  -12.5354 S   0  0  2  0  0  6  0  0  0  0  0  0
  -14.8390  -40.4047   -8.2050 S   0  0  0  0  0  0  0  0  0  0  0  0
  -20.8748  -38.7020   -9.0355 C   0  0  0  0  0  0  0  0  0  0  0  0
  -21.1112  -39.5683   -7.9963 C   0  0  0  0  0  0  0  0  0  0  0  0
  -22.2978  -40.0165   -5.5543 O   0  0  0  0  0  0  0  0  0  0  0  0
  -22.4782  -42.0532   -3.4489 C   0  0  0  0  0  0  0  0  0  0  0  0
  -22.4847  -42.5811   -2.2322 N   0  0  0  0  0  0  0  0  0  0  0  0
  -21.4340  -42.4569   -1.3512 C   0  0  0  0  0  0  0  0  0  0  0  0
  -20.3465  -41.2010   -3.0531 N   0  0  0  0  0  0  0  0  0  0  0  0
  -21.4646  -42.9815   -0.1688 O   0  0  0  0  0  0  0  0  0  0  0  0
  -21.4702  -43.5307    0.9947 C   0  0  0  0  0  0  0  0  0  0  0  0
  -21.3468  -44.9328    1.0508 F   0  0  0  0  0  0  0  0  0  0  0  0
  -14.9133  -39.2647   -5.1590 H   0  0  0  0  0  0  0  0  0  0  0  0
  2  1  1  6
  2  5  1  0
  2  8  1  0
 15  2  1  0
  8  3  1  0
  3  9  2  0
  3 24  1  0
  5  4  1  1
  4 24  1  0
  5  6  1  0
  5 14  1  0
  6  7  1  0
 23  7  1  1
 23 10  2  0
 14 11  1  0
 11 23  1  0
 23 12  2  0
 13 17  1  0
 18 13  1  0
 16 15  2  0
 15 22  1  0
 17 16  1  0
 17 26  2  0
 19 18  1  0
 18 27  2  0
 19 28  1  0
 31 19  2  0
 20 30  2  0
 20 31  1  0
 22 21  1  0
 22 25  2  0
 25 26  1  0
 28 29  2  0
 29 30  1  0
 30 32  1  0
 32 33  1  0
 33 34  1  0
  9 35  1  0
M  END
$$$$
