
     RDKit          3D

 35 38  0  0  0  0  0  0  0  0999 V2000
  -16.7938  -37.1554   -9.3281 C   0  0  0  0  0  0  0  0  0  0  0  0
  -17.0663  -38.5646   -8.7530 C   0  0  1  0  0  0  0  0  0  0  0  0
  -15.9038  -39.6007   -6.7032 C   0  0  0  0  0  0  0  0  0  0  0  0
  -15.1279  -40.0728   -9.2913 C   0  0  0  0  0  0  0  0  0  0  0  0
  -16.5591  -39.6124   -9.6918 C   0  0  2  0  0  0  0  0  0  0  0  0
  -16.3358  -39.1080  -11.1174 C   0  0  0  0  0  0  0  0  0  0  0  0
  -16.8001  -40.0367  -12.1837 C   0  0  0  0  0  0  0  0  0  0  0  0
  -16.4358  -38.5477   -7.4473 N   0  0  0  0  0  0  0  0  0  0  0  0
  -15.8468  -39.7057   -5.4359 N   0  0  0  0  0  0  0  0  0  0  0  0
  -17.2248  -42.5689  -12.8138 O   0  0  0  0  0  0  0  0  0  0  0  0
  -16.5659  -42.0800  -10.2251 C   0  0  0  0  0  0  0  0  0  0  0  0
  -14.9227  -42.0077  -12.4108 O   0  0  0  0  0  0  0  0  0  0  0  0
  -20.6590  -39.5217   -5.4378 N   0  0  0  0  0  0  0  0  0  0  0  0
  -17.3454  -40.9063   -9.6587 C   0  0  0  0  0  0  0  0  0  0  0  0
  -18.5433  -38.6716   -8.4366 C   0  0  0  0  0  0  0  0  0  0  0  0
  -18.9724  -39.0160   -7.1490 C   0  0  0  0  0  0  0  0  0  0  0  0
  -20.2851  -39.1680   -6.7707 C   0  0  0  0  0  0  0  0  0  0  0  0
  -21.4904  -40.6341   -5.1689 C   0  0  0  0  0  0  0  0  0  0  0  0
  -21.4519  -41.4248   -3.9335 C   0  0  0  0  0  0  0  0  0  0  0  0
  -20.3972  -41.8385   -1.8832 C   0  0  0  0  0  0  0  0  0  0  0  0
  -19.2225  -38.0915  -10.6637 F   0  0  0  0  0  0  0  0  0  0  0  0
  -19.5017  -38.4686   -9.3923 C   0  0  0  0  0  0  0  0  0  0  0  0
  -16.3175  -41.7269  -11.9470 S   0  0  2  0  0  6  0  0  0  0  0  0
  -15.2128  -40.9356   -7.6799 S   0  0  0  0  0  0  0  0  0  0  0  0
  -20.8426  -38.6192   -9.0272 C   0  0  0  0  0  0  0  0  0  0  0  0
  -21.2305  -38.9591   -7.7543 C   0  0  0  0  0  0  0  0  0  0  0  0
  -22.3207  -40.9758   -6.0400 O   0  0  0  0  0  0  0  0  0  0  0  0
  -22.3501  -42.4111   -3.6763 C   0  0  0  0  0  0  0  0  0  0  0  0
  -22.2746  -43.0987   -2.5447 N   0  0  0  0  0  0  0  0  0  0  0  0
  -21.3139  -42.8685   -1.5856 C   0  0  0  0  0  0  0  0  0  0  0  0
  -20.4940  -41.1627   -3.0259 N   0  0  0  0  0  0  0  0  0  0  0  0
  -21.2613  -43.5535   -0.4891 O   0  0  0  0  0  0  0  0  0  0  0  0
  -21.2415  -44.2166    0.6131 C   0  0  0  0  0  0  0  0  0  0  0  0
  -20.1696  -43.9771    1.4952 F   0  0  0  0  0  0  0  0  0  0  0  0
  -15.0083  -39.6815   -4.8563 H   0  0  0  0  0  0  0  0  0  0  0  0
  2  1  1  6
  2  5  1  0
  2  8  1  0
 15  2  1  0
  8  3  1  0
  3  9  2  0
  3 24  1  0
  5  4  1  1
  4 24  1  0
  5  6  1  0
  5 14  1  0
  6  7  1  0
 23  7  1  1
 23 10  2  0
 14 11  1  0
 11 23  1  0
 23 12  2  0
 13 17  1  0
 18 13  1  0
 16 15  2  0
 15 22  1  0
 17 16  1  0
 17 26  2  0
 19 18  1  0
 18 27  2  0
 19 28  1  0
 31 19  2  0
 20 30  2  0
 20 31  1  0
 22 21  1  0
 22 25  2  0
 25 26  1  0
 28 29  2  0
 29 30  1  0
 30 32  1  0
 32 33  1  0
 33 34  1  0
  9 35  1  0
M  END
$$$$
