
     RDKit          3D

 35 38  0  0  0  0  0  0  0  0999 V2000
  -16.6549  -37.0018   -9.4109 C   0  0  0  0  0  0  0  0  0  0  0  0
  -16.8483  -38.4321   -8.8563 C   0  0  1  0  0  0  0  0  0  0  0  0
  -15.5255  -39.4809   -6.9129 C   0  0  0  0  0  0  0  0  0  0  0  0
  -14.9057  -39.8665   -9.5568 C   0  0  0  0  0  0  0  0  0  0  0  0
  -16.3727  -39.4410   -9.8526 C   0  0  2  0  0  0  0  0  0  0  0  0
  -16.2572  -38.8957  -11.2760 C   0  0  0  0  0  0  0  0  0  0  0  0
  -16.7624  -39.8124  -12.3340 C   0  0  0  0  0  0  0  0  0  0  0  0
  -16.1352  -38.4272   -7.5937 N   0  0  0  0  0  0  0  0  0  0  0  0
  -15.3834  -39.6146   -5.6550 N   0  0  0  0  0  0  0  0  0  0  0  0
  -17.1531  -42.3406  -13.0012 O   0  0  0  0  0  0  0  0  0  0  0  0
  -16.3422  -41.8941  -10.4483 C   0  0  0  0  0  0  0  0  0  0  0  0
  -14.8470  -41.7187  -12.7322 O   0  0  0  0  0  0  0  0  0  0  0  0
  -20.1873  -39.6564   -5.3683 N   0  0  0  0  0  0  0  0  0  0  0  0
  -17.1172  -40.7589   -9.8027 C   0  0  0  0  0  0  0  0  0  0  0  0
  -18.2979  -38.5921   -8.4487 C   0  0  0  0  0  0  0  0  0  0  0  0
  -18.6315  -39.0169   -7.1569 C   0  0  0  0  0  0  0  0  0  0  0  0
  -19.9121  -39.2212   -6.7011 C   0  0  0  0  0  0  0  0  0  0  0  0
  -21.1831  -40.6224   -5.0920 C   0  0  0  0  0  0  0  0  0  0  0  0
  -21.2814  -41.3849   -3.8423 C   0  0  0  0  0  0  0  0  0  0  0  0
  -20.2714  -42.0103   -1.8233 C   0  0  0  0  0  0  0  0  0  0  0  0
  -19.1384  -37.9073  -10.5894 F   0  0  0  0  0  0  0  0  0  0  0  0
  -19.3229  -38.3603   -9.3255 C   0  0  0  0  0  0  0  0  0  0  0  0
  -16.2164  -41.4922  -12.1728 S   0  0  2  0  0  6  0  0  0  0  0  0
  -14.8607  -40.7700   -7.9662 S   0  0  0  0  0  0  0  0  0  0  0  0
  -20.6326  -38.5631   -8.8809 C   0  0  0  0  0  0  0  0  0  0  0  0
  -20.9262  -38.9817   -7.6062 C   0  0  0  0  0  0  0  0  0  0  0  0
  -22.0456  -40.8498   -5.9691 O   0  0  0  0  0  0  0  0  0  0  0  0
  -22.3748  -42.1289   -3.5317 C   0  0  0  0  0  0  0  0  0  0  0  0
  -22.4172  -42.8013   -2.3892 N   0  0  0  0  0  0  0  0  0  0  0  0
  -21.3914  -42.7920   -1.4708 C   0  0  0  0  0  0  0  0  0  0  0  0
  -20.2529  -41.3446   -2.9759 N   0  0  0  0  0  0  0  0  0  0  0  0
  -21.4568  -43.4567   -0.3626 O   0  0  0  0  0  0  0  0  0  0  0  0
  -21.4969  -44.1437    0.7244 C   0  0  0  0  0  0  0  0  0  0  0  0
  -22.6149  -44.9771    0.9244 F   0  0  0  0  0  0  0  0  0  0  0  0
  -14.5204  -39.5123   -5.1217 H   0  0  0  0  0  0  0  0  0  0  0  0
  2  1  1  6
  2  5  1  0
  2  8  1  0
 15  2  1  0
  8  3  1  0
  3  9  2  0
  3 24  1  0
  5  4  1  1
  4 24  1  0
  5  6  1  0
  5 14  1  0
  6  7  1  0
 23  7  1  1
 23 10  2  0
 14 11  1  0
 11 23  1  0
 23 12  2  0
 13 17  1  0
 18 13  1  0
 16 15  2  0
 15 22  1  0
 17 16  1  0
 17 26  2  0
 19 18  1  0
 18 27  2  0
 19 28  1  0
 31 19  2  0
 20 30  2  0
 20 31  1  0
 22 21  1  0
 22 25  2  0
 25 26  1  0
 28 29  2  0
 29 30  1  0
 30 32  1  0
 32 33  1  0
 33 34  1  0
  9 35  1  0
M  END
$$$$
