
     RDKit          3D

 35 38  0  0  0  0  0  0  0  0999 V2000
  -16.9866  -37.2170   -9.4230 C   0  0  0  0  0  0  0  0  0  0  0  0
  -17.0574  -38.6501   -8.8470 C   0  0  1  0  0  0  0  0  0  0  0  0
  -15.6329  -39.5607   -6.9057 C   0  0  0  0  0  0  0  0  0  0  0  0
  -15.0129  -39.9328   -9.5515 C   0  0  0  0  0  0  0  0  0  0  0  0
  -16.5127  -39.6314   -9.8353 C   0  0  2  0  0  0  0  0  0  0  0  0
  -16.4573  -39.0991  -11.2671 C   0  0  0  0  0  0  0  0  0  0  0  0
  -16.8982  -40.0686  -12.3067 C   0  0  0  0  0  0  0  0  0  0  0  0
  -16.3333  -38.5695   -7.5932 N   0  0  0  0  0  0  0  0  0  0  0  0
  -15.4668  -39.6644   -5.6480 N   0  0  0  0  0  0  0  0  0  0  0  0
  -17.0902  -42.6294  -12.9351 O   0  0  0  0  0  0  0  0  0  0  0  0
  -16.2902  -42.0823  -10.3984 C   0  0  0  0  0  0  0  0  0  0  0  0
  -14.8392  -41.8194  -12.7023 O   0  0  0  0  0  0  0  0  0  0  0  0
  -20.2459  -40.1142   -5.3108 N   0  0  0  0  0  0  0  0  0  0  0  0
  -17.1475  -41.0043   -9.7588 C   0  0  0  0  0  0  0  0  0  0  0  0
  -18.4849  -38.9208   -8.4198 C   0  0  0  0  0  0  0  0  0  0  0  0
  -18.7677  -39.3640   -7.1221 C   0  0  0  0  0  0  0  0  0  0  0  0
  -20.0225  -39.6655   -6.6488 C   0  0  0  0  0  0  0  0  0  0  0  0
  -21.4121  -40.8296   -4.9511 C   0  0  0  0  0  0  0  0  0  0  0  0
  -21.5746  -41.5874   -3.7053 C   0  0  0  0  0  0  0  0  0  0  0  0
  -20.8266  -41.9853   -1.5214 C   0  0  0  0  0  0  0  0  0  0  0  0
  -19.4035  -38.3144  -10.5520 F   0  0  0  0  0  0  0  0  0  0  0  0
  -19.5359  -38.7742   -9.2840 C   0  0  0  0  0  0  0  0  0  0  0  0
  -16.2162  -41.6964  -12.1295 S   0  0  2  0  0  6  0  0  0  0  0  0
  -14.8775  -40.8068   -7.9496 S   0  0  0  0  0  0  0  0  0  0  0  0
  -20.8199  -39.0765   -8.8215 C   0  0  0  0  0  0  0  0  0  0  0  0
  -21.0636  -39.5104   -7.5415 C   0  0  0  0  0  0  0  0  0  0  0  0
  -22.3789  -40.8215   -5.7449 O   0  0  0  0  0  0  0  0  0  0  0  0
  -22.5395  -42.5315   -3.5522 C   0  0  0  0  0  0  0  0  0  0  0  0
  -22.6470  -43.1906   -2.4063 N   0  0  0  0  0  0  0  0  0  0  0  0
  -21.8170  -42.9712   -1.3300 C   0  0  0  0  0  0  0  0  0  0  0  0
  -20.7390  -41.3375   -2.6809 N   0  0  0  0  0  0  0  0  0  0  0  0
  -21.9423  -43.6278   -0.2220 O   0  0  0  0  0  0  0  0  0  0  0  0
  -22.0531  -44.3123    0.8616 C   0  0  0  0  0  0  0  0  0  0  0  0
  -20.8858  -44.9144    1.3709 F   0  0  0  0  0  0  0  0  0  0  0  0
  -14.5790  -39.6812   -5.1467 H   0  0  0  0  0  0  0  0  0  0  0  0
  2  1  1  6
  2  5  1  0
  2  8  1  0
 15  2  1  0
  8  3  1  0
  3  9  2  0
  3 24  1  0
  5  4  1  1
  4 24  1  0
  5  6  1  0
  5 14  1  0
  6  7  1  0
 23  7  1  1
 23 10  2  0
 14 11  1  0
 11 23  1  0
 23 12  2  0
 13 17  1  0
 18 13  1  0
 16 15  2  0
 15 22  1  0
 17 16  1  0
 17 26  2  0
 19 18  1  0
 18 27  2  0
 19 28  1  0
 31 19  2  0
 20 30  2  0
 20 31  1  0
 22 21  1  0
 22 25  2  0
 25 26  1  0
 28 29  2  0
 29 30  1  0
 30 32  1  0
 32 33  1  0
 33 34  1  0
  9 35  1  0
M  END
$$$$
