
     RDKit          3D

 35 38  0  0  0  0  0  0  0  0999 V2000
  -16.7031  -37.1059   -9.3227 C   0  0  0  0  0  0  0  0  0  0  0  0
  -16.9737  -38.5411   -8.8152 C   0  0  1  0  0  0  0  0  0  0  0  0
  -15.8423  -39.6562   -6.7895 C   0  0  0  0  0  0  0  0  0  0  0  0
  -15.0110  -40.0079   -9.3795 C   0  0  0  0  0  0  0  0  0  0  0  0
  -16.4383  -39.5425   -9.7884 C   0  0  2  0  0  0  0  0  0  0  0  0
  -16.1916  -38.9743  -11.1858 C   0  0  0  0  0  0  0  0  0  0  0  0
  -16.6260  -39.8593  -12.3007 C   0  0  0  0  0  0  0  0  0  0  0  0
  -16.3693  -38.5761   -7.4975 N   0  0  0  0  0  0  0  0  0  0  0  0
  -15.8095  -39.8161   -5.5271 N   0  0  0  0  0  0  0  0  0  0  0  0
  -17.0146  -42.3649  -13.0491 O   0  0  0  0  0  0  0  0  0  0  0  0
  -16.4116  -41.9844  -10.4289 C   0  0  0  0  0  0  0  0  0  0  0  0
  -14.7262  -41.8025  -12.5756 O   0  0  0  0  0  0  0  0  0  0  0  0
  -20.6278  -39.5152   -5.5729 N   0  0  0  0  0  0  0  0  0  0  0  0
  -17.2131  -40.8432   -9.8276 C   0  0  0  0  0  0  0  0  0  0  0  0
  -18.4557  -38.6743   -8.5336 C   0  0  0  0  0  0  0  0  0  0  0  0
  -18.9097  -39.0044   -7.2509 C   0  0  0  0  0  0  0  0  0  0  0  0
  -20.2280  -39.1779   -6.9024 C   0  0  0  0  0  0  0  0  0  0  0  0
  -21.4730  -40.6181   -5.3075 C   0  0  0  0  0  0  0  0  0  0  0  0
  -21.4332  -41.4232   -4.0815 C   0  0  0  0  0  0  0  0  0  0  0  0
  -20.3008  -41.9543   -2.1009 C   0  0  0  0  0  0  0  0  0  0  0  0
  -19.0906  -38.1499  -10.7874 F   0  0  0  0  0  0  0  0  0  0  0  0
  -19.3937  -38.5097   -9.5165 C   0  0  0  0  0  0  0  0  0  0  0  0
  -16.1325  -41.5541  -12.1283 S   0  0  2  0  0  6  0  0  0  0  0  0
  -15.1198  -40.9411   -7.8094 S   0  0  0  0  0  0  0  0  0  0  0  0
  -20.7399  -38.6826   -9.1820 C   0  0  0  0  0  0  0  0  0  0  0  0
  -21.1525  -39.0076   -7.9130 C   0  0  0  0  0  0  0  0  0  0  0  0
  -22.3175  -40.9375   -6.1734 O   0  0  0  0  0  0  0  0  0  0  0  0
  -22.4006  -42.3272   -3.7768 C   0  0  0  0  0  0  0  0  0  0  0  0
  -22.3209  -43.0318   -2.6560 N   0  0  0  0  0  0  0  0  0  0  0  0
  -21.2880  -42.9005   -1.7551 C   0  0  0  0  0  0  0  0  0  0  0  0
  -20.4033  -41.2593   -3.2315 N   0  0  0  0  0  0  0  0  0  0  0  0
  -21.2330  -43.6001   -0.6679 O   0  0  0  0  0  0  0  0  0  0  0  0
  -21.1732  -44.3277    0.3914 C   0  0  0  0  0  0  0  0  0  0  0  0
  -22.1834  -44.1517    1.3573 F   0  0  0  0  0  0  0  0  0  0  0  0
  -14.9917  -39.7477   -4.9221 H   0  0  0  0  0  0  0  0  0  0  0  0
  2  1  1  6
  2  5  1  0
  2  8  1  0
 15  2  1  0
  8  3  1  0
  3  9  2  0
  3 24  1  0
  5  4  1  1
  4 24  1  0
  5  6  1  0
  5 14  1  0
  6  7  1  0
 23  7  1  1
 23 10  2  0
 14 11  1  0
 11 23  1  0
 23 12  2  0
 13 17  1  0
 18 13  1  0
 16 15  2  0
 15 22  1  0
 17 16  1  0
 17 26  2  0
 19 18  1  0
 18 27  2  0
 19 28  1  0
 31 19  2  0
 20 30  2  0
 20 31  1  0
 22 21  1  0
 22 25  2  0
 25 26  1  0
 28 29  2  0
 29 30  1  0
 30 32  1  0
 32 33  1  0
 33 34  1  0
  9 35  1  0
M  END
$$$$
