
     RDKit          3D

 35 38  0  0  0  0  0  0  0  0999 V2000
  -16.7043  -36.9517   -9.2121 C   0  0  0  0  0  0  0  0  0  0  0  0
  -16.8065  -38.4029   -8.6882 C   0  0  1  0  0  0  0  0  0  0  0  0
  -15.4502  -39.3945   -6.7378 C   0  0  0  0  0  0  0  0  0  0  0  0
  -14.7542  -39.6827   -9.3752 C   0  0  0  0  0  0  0  0  0  0  0  0
  -16.2418  -39.3557   -9.6930 C   0  0  2  0  0  0  0  0  0  0  0  0
  -16.1380  -38.7754  -11.1034 C   0  0  0  0  0  0  0  0  0  0  0  0
  -16.5568  -39.7041  -12.1884 C   0  0  0  0  0  0  0  0  0  0  0  0
  -16.1198  -38.3729   -7.4113 N   0  0  0  0  0  0  0  0  0  0  0  0
  -15.3231  -39.5428   -5.4800 N   0  0  0  0  0  0  0  0  0  0  0  0
  -16.7547  -42.2397  -12.9101 O   0  0  0  0  0  0  0  0  0  0  0  0
  -16.0264  -41.7882  -10.3333 C   0  0  0  0  0  0  0  0  0  0  0  0
  -14.5039  -41.4625  -12.5825 O   0  0  0  0  0  0  0  0  0  0  0  0
  -20.1204  -39.8882   -5.2785 N   0  0  0  0  0  0  0  0  0  0  0  0
  -16.8920  -40.7234   -9.6828 C   0  0  0  0  0  0  0  0  0  0  0  0
  -18.2487  -38.6726   -8.3133 C   0  0  0  0  0  0  0  0  0  0  0  0
  -18.5779  -39.1265   -7.0303 C   0  0  0  0  0  0  0  0  0  0  0  0
  -19.8493  -39.4280   -6.6037 C   0  0  0  0  0  0  0  0  0  0  0  0
  -21.2967  -40.6100   -4.9679 C   0  0  0  0  0  0  0  0  0  0  0  0
  -21.4662  -41.4580   -3.7825 C   0  0  0  0  0  0  0  0  0  0  0  0
  -20.5647  -42.2428   -1.7679 C   0  0  0  0  0  0  0  0  0  0  0  0
  -19.0908  -38.0437  -10.4704 F   0  0  0  0  0  0  0  0  0  0  0  0
  -19.2686  -38.5144   -9.2121 C   0  0  0  0  0  0  0  0  0  0  0  0
  -15.8964  -41.3442  -12.0471 S   0  0  2  0  0  6  0  0  0  0  0  0
  -14.6758  -40.6123   -7.8010 S   0  0  0  0  0  0  0  0  0  0  0  0
  -20.5689  -38.8166   -8.7973 C   0  0  0  0  0  0  0  0  0  0  0  0
  -20.8583  -39.2613   -7.5305 C   0  0  0  0  0  0  0  0  0  0  0  0
  -22.2667  -40.5259   -5.7533 O   0  0  0  0  0  0  0  0  0  0  0  0
  -22.5834  -42.2037   -3.5790 C   0  0  0  0  0  0  0  0  0  0  0  0
  -22.6907  -42.9550   -2.4913 N   0  0  0  0  0  0  0  0  0  0  0  0
  -21.7110  -43.0286   -1.5266 C   0  0  0  0  0  0  0  0  0  0  0  0
  -20.4809  -41.4970   -2.8672 N   0  0  0  0  0  0  0  0  0  0  0  0
  -21.8395  -43.7696   -0.4737 O   0  0  0  0  0  0  0  0  0  0  0  0
  -21.9312  -44.4963    0.5840 C   0  0  0  0  0  0  0  0  0  0  0  0
  -21.3124  -44.0178    1.7556 F   0  0  0  0  0  0  0  0  0  0  0  0
  -14.4525  -39.6559   -4.9614 H   0  0  0  0  0  0  0  0  0  0  0  0
  2  1  1  6
  2  5  1  0
  2  8  1  0
 15  2  1  0
  8  3  1  0
  3  9  2  0
  3 24  1  0
  5  4  1  1
  4 24  1  0
  5  6  1  0
  5 14  1  0
  6  7  1  0
 23  7  1  1
 23 10  2  0
 14 11  1  0
 11 23  1  0
 23 12  2  0
 13 17  1  0
 18 13  1  0
 16 15  2  0
 15 22  1  0
 17 16  1  0
 17 26  2  0
 19 18  1  0
 18 27  2  0
 19 28  1  0
 31 19  2  0
 20 30  2  0
 20 31  1  0
 22 21  1  0
 22 25  2  0
 25 26  1  0
 28 29  2  0
 29 30  1  0
 30 32  1  0
 32 33  1  0
 33 34  1  0
  9 35  1  0
M  END
$$$$
