
     RDKit          3D

 35 38  0  0  0  0  0  0  0  0999 V2000
  -16.9327  -37.2435   -9.6351 C   0  0  0  0  0  0  0  0  0  0  0  0
  -17.1411  -38.6546   -9.0384 C   0  0  1  0  0  0  0  0  0  0  0  0
  -15.9198  -39.6123   -6.9846 C   0  0  0  0  0  0  0  0  0  0  0  0
  -15.1453  -40.0876   -9.5726 C   0  0  0  0  0  0  0  0  0  0  0  0
  -16.5978  -39.6933   -9.9671 C   0  0  2  0  0  0  0  0  0  0  0  0
  -16.4073  -39.2000  -11.4013 C   0  0  0  0  0  0  0  0  0  0  0  0
  -16.8406  -40.1622  -12.4508 C   0  0  0  0  0  0  0  0  0  0  0  0
  -16.5015  -38.5930   -7.7384 N   0  0  0  0  0  0  0  0  0  0  0  0
  -15.8484  -39.6971   -5.7165 N   0  0  0  0  0  0  0  0  0  0  0  0
  -17.1634  -42.7185  -13.0426 O   0  0  0  0  0  0  0  0  0  0  0  0
  -16.5051  -42.1663  -10.4666 C   0  0  0  0  0  0  0  0  0  0  0  0
  -14.8838  -42.0557  -12.6669 O   0  0  0  0  0  0  0  0  0  0  0  0
  -20.6659  -39.6797   -5.6711 N   0  0  0  0  0  0  0  0  0  0  0  0
  -17.3287  -41.0184   -9.9096 C   0  0  0  0  0  0  0  0  0  0  0  0
  -18.6098  -38.8190   -8.7080 C   0  0  0  0  0  0  0  0  0  0  0  0
  -19.0147  -39.1464   -7.4082 C   0  0  0  0  0  0  0  0  0  0  0  0
  -20.3168  -39.3467   -7.0159 C   0  0  0  0  0  0  0  0  0  0  0  0
  -21.5890  -40.7100   -5.3756 C   0  0  0  0  0  0  0  0  0  0  0  0
  -21.6070  -41.4809   -4.1273 C   0  0  0  0  0  0  0  0  0  0  0  0
  -20.6237  -41.8873   -2.0403 C   0  0  0  0  0  0  0  0  0  0  0  0
  -19.3285  -38.3320  -10.9449 F   0  0  0  0  0  0  0  0  0  0  0  0
  -19.5824  -38.6859   -9.6616 C   0  0  0  0  0  0  0  0  0  0  0  0
  -16.2855  -41.8272  -12.1952 S   0  0  2  0  0  6  0  0  0  0  0  0
  -15.1811  -40.9305   -7.9489 S   0  0  0  0  0  0  0  0  0  0  0  0
  -20.9128  -38.8863   -9.2823 C   0  0  0  0  0  0  0  0  0  0  0  0
  -21.2769  -39.2079   -7.9977 C   0  0  0  0  0  0  0  0  0  0  0  0
  -22.4554  -40.9913   -6.2330 O   0  0  0  0  0  0  0  0  0  0  0  0
  -22.5375  -42.4397   -3.8812 C   0  0  0  0  0  0  0  0  0  0  0  0
  -22.5128  -43.1103   -2.7372 N   0  0  0  0  0  0  0  0  0  0  0  0
  -21.5749  -42.8886   -1.7538 C   0  0  0  0  0  0  0  0  0  0  0  0
  -20.6696  -41.2282   -3.1959 N   0  0  0  0  0  0  0  0  0  0  0  0
  -21.5721  -43.5565   -0.6456 O   0  0  0  0  0  0  0  0  0  0  0  0
  -21.5872  -44.2500    0.4380 C   0  0  0  0  0  0  0  0  0  0  0  0
  -20.3682  -44.4033    1.1271 F   0  0  0  0  0  0  0  0  0  0  0  0
  -15.1807  -39.2248   -5.1077 H   0  0  0  0  0  0  0  0  0  0  0  0
  2  1  1  6
  2  5  1  0
  2  8  1  0
 15  2  1  0
  8  3  1  0
  3  9  2  0
  3 24  1  0
  5  4  1  1
  4 24  1  0
  5  6  1  0
  5 14  1  0
  6  7  1  0
 23  7  1  1
 23 10  2  0
 14 11  1  0
 11 23  1  0
 23 12  2  0
 13 17  1  0
 18 13  1  0
 16 15  2  0
 15 22  1  0
 17 16  1  0
 17 26  2  0
 19 18  1  0
 18 27  2  0
 19 28  1  0
 31 19  2  0
 20 30  2  0
 20 31  1  0
 22 21  1  0
 22 25  2  0
 25 26  1  0
 28 29  2  0
 29 30  1  0
 30 32  1  0
 32 33  1  0
 33 34  1  0
  9 35  1  0
M  END
$$$$
