
     RDKit          3D

 35 38  0  0  0  0  0  0  0  0999 V2000
  -16.7763  -36.8206   -9.3903 C   0  0  0  0  0  0  0  0  0  0  0  0
  -16.9506  -38.2650   -8.8666 C   0  0  1  0  0  0  0  0  0  0  0  0
  -15.6721  -39.3114   -6.8925 C   0  0  0  0  0  0  0  0  0  0  0  0
  -14.9449  -39.6345   -9.5174 C   0  0  0  0  0  0  0  0  0  0  0  0
  -16.4112  -39.2434   -9.8608 C   0  0  2  0  0  0  0  0  0  0  0  0
  -16.2583  -38.6707  -11.2698 C   0  0  0  0  0  0  0  0  0  0  0  0
  -16.6988  -39.5822  -12.3607 C   0  0  0  0  0  0  0  0  0  0  0  0
  -16.2849  -38.2628   -7.5783 N   0  0  0  0  0  0  0  0  0  0  0  0
  -15.5728  -39.4629   -5.6325 N   0  0  0  0  0  0  0  0  0  0  0  0
  -16.9951  -42.1080  -13.0831 O   0  0  0  0  0  0  0  0  0  0  0  0
  -16.2914  -41.6841  -10.4948 C   0  0  0  0  0  0  0  0  0  0  0  0
  -14.7184  -41.4291  -12.7181 O   0  0  0  0  0  0  0  0  0  0  0  0
  -20.3964  -39.4124   -5.4572 N   0  0  0  0  0  0  0  0  0  0  0  0
  -17.1205  -40.5814   -9.8602 C   0  0  0  0  0  0  0  0  0  0  0  0
  -18.4094  -38.4708   -8.5160 C   0  0  0  0  0  0  0  0  0  0  0  0
  -18.7860  -38.8204   -7.2136 C   0  0  0  0  0  0  0  0  0  0  0  0
  -20.0764  -39.0583   -6.8039 C   0  0  0  0  0  0  0  0  0  0  0  0
  -21.2848  -40.4717   -5.1577 C   0  0  0  0  0  0  0  0  0  0  0  0
  -21.2192  -41.2981   -3.9471 C   0  0  0  0  0  0  0  0  0  0  0  0
  -20.0919  -41.8030   -1.9567 C   0  0  0  0  0  0  0  0  0  0  0  0
  -19.1741  -37.9828  -10.7375 F   0  0  0  0  0  0  0  0  0  0  0  0
  -19.3993  -38.3547   -9.4539 C   0  0  0  0  0  0  0  0  0  0  0  0
  -16.1132  -41.2493  -12.2066 S   0  0  2  0  0  6  0  0  0  0  0  0
  -14.9338  -40.5638   -7.9412 S   0  0  0  0  0  0  0  0  0  0  0  0
  -20.7182  -38.5934   -9.0569 C   0  0  0  0  0  0  0  0  0  0  0  0
  -21.0544  -38.9360   -7.7701 C   0  0  0  0  0  0  0  0  0  0  0  0
  -22.1944  -40.7299   -5.9769 O   0  0  0  0  0  0  0  0  0  0  0  0
  -22.1370  -42.2630   -3.6779 C   0  0  0  0  0  0  0  0  0  0  0  0
  -22.0355  -42.9847   -2.5698 N   0  0  0  0  0  0  0  0  0  0  0  0
  -21.0278  -42.8120   -1.6476 C   0  0  0  0  0  0  0  0  0  0  0  0
  -20.2154  -41.0921   -3.0753 N   0  0  0  0  0  0  0  0  0  0  0  0
  -20.9506  -43.5293   -0.5735 O   0  0  0  0  0  0  0  0  0  0  0  0
  -20.9116  -44.2516    0.4904 C   0  0  0  0  0  0  0  0  0  0  0  0
  -21.4925  -43.7188    1.6579 F   0  0  0  0  0  0  0  0  0  0  0  0
  -15.1162  -40.2314   -5.1420 H   0  0  0  0  0  0  0  0  0  0  0  0
  2  1  1  6
  2  5  1  0
  2  8  1  0
 15  2  1  0
  8  3  1  0
  3  9  2  0
  3 24  1  0
  5  4  1  1
  4 24  1  0
  5  6  1  0
  5 14  1  0
  6  7  1  0
 23  7  1  1
 23 10  2  0
 14 11  1  0
 11 23  1  0
 23 12  2  0
 13 17  1  0
 18 13  1  0
 16 15  2  0
 15 22  1  0
 17 16  1  0
 17 26  2  0
 19 18  1  0
 18 27  2  0
 19 28  1  0
 31 19  2  0
 20 30  2  0
 20 31  1  0
 22 21  1  0
 22 25  2  0
 25 26  1  0
 28 29  2  0
 29 30  1  0
 30 32  1  0
 32 33  1  0
 33 34  1  0
  9 35  1  0
M  END
$$$$
