
     RDKit          3D

 35 38  0  0  0  0  0  0  0  0999 V2000
  -16.8131  -37.1188   -9.3854 C   0  0  0  0  0  0  0  0  0  0  0  0
  -17.0690  -38.5613   -8.8909 C   0  0  1  0  0  0  0  0  0  0  0  0
  -15.9425  -39.6757   -6.8622 C   0  0  0  0  0  0  0  0  0  0  0  0
  -15.0810  -39.9970   -9.4463 C   0  0  0  0  0  0  0  0  0  0  0  0
  -16.5104  -39.5481   -9.8659 C   0  0  2  0  0  0  0  0  0  0  0  0
  -16.2578  -38.9663  -11.2567 C   0  0  0  0  0  0  0  0  0  0  0  0
  -16.6691  -39.8489  -12.3822 C   0  0  0  0  0  0  0  0  0  0  0  0
  -16.4773  -38.5977   -7.5676 N   0  0  0  0  0  0  0  0  0  0  0  0
  -15.9199  -39.8444   -5.6007 N   0  0  0  0  0  0  0  0  0  0  0  0
  -17.0159  -42.3541  -13.1525 O   0  0  0  0  0  0  0  0  0  0  0  0
  -16.4440  -41.9846  -10.5237 C   0  0  0  0  0  0  0  0  0  0  0  0
  -14.7402  -41.7640  -12.6523 O   0  0  0  0  0  0  0  0  0  0  0  0
  -20.7458  -39.5329   -5.6735 N   0  0  0  0  0  0  0  0  0  0  0  0
  -17.2669  -40.8589   -9.9222 C   0  0  0  0  0  0  0  0  0  0  0  0
  -18.5517  -38.7168   -8.6250 C   0  0  0  0  0  0  0  0  0  0  0  0
  -19.0160  -39.0267   -7.3409 C   0  0  0  0  0  0  0  0  0  0  0  0
  -20.3352  -39.2178   -7.0053 C   0  0  0  0  0  0  0  0  0  0  0  0
  -21.5239  -40.6789   -5.3865 C   0  0  0  0  0  0  0  0  0  0  0  0
  -21.4535  -41.4429   -4.1359 C   0  0  0  0  0  0  0  0  0  0  0  0
  -20.3332  -41.8283   -2.1150 C   0  0  0  0  0  0  0  0  0  0  0  0
  -19.1672  -38.2553  -10.8979 F   0  0  0  0  0  0  0  0  0  0  0  0
  -19.4799  -38.5923   -9.6231 C   0  0  0  0  0  0  0  0  0  0  0  0
  -16.1541  -41.5382  -12.2171 S   0  0  2  0  0  6  0  0  0  0  0  0
  -15.1924  -40.9431   -7.8840 S   0  0  0  0  0  0  0  0  0  0  0  0
  -20.8268  -38.7837   -9.3017 C   0  0  0  0  0  0  0  0  0  0  0  0
  -21.2496  -39.0881   -8.0309 C   0  0  0  0  0  0  0  0  0  0  0  0
  -22.3323  -41.0770   -6.2542 O   0  0  0  0  0  0  0  0  0  0  0  0
  -22.3566  -42.4091   -3.8253 C   0  0  0  0  0  0  0  0  0  0  0  0
  -22.2514  -43.0730   -2.6820 N   0  0  0  0  0  0  0  0  0  0  0  0
  -21.2541  -42.8370   -1.7626 C   0  0  0  0  0  0  0  0  0  0  0  0
  -20.4602  -41.1762   -3.2684 N   0  0  0  0  0  0  0  0  0  0  0  0
  -21.1729  -43.4987   -0.6536 O   0  0  0  0  0  0  0  0  0  0  0  0
  -21.0770  -44.1250    0.4661 C   0  0  0  0  0  0  0  0  0  0  0  0
  -21.0644  -43.3513    1.6433 F   0  0  0  0  0  0  0  0  0  0  0  0
  -15.0953  -39.8778   -5.0018 H   0  0  0  0  0  0  0  0  0  0  0  0
  2  1  1  6
  2  5  1  0
  2  8  1  0
 15  2  1  0
  8  3  1  0
  3  9  2  0
  3 24  1  0
  5  4  1  1
  4 24  1  0
  5  6  1  0
  5 14  1  0
  6  7  1  0
 23  7  1  1
 23 10  2  0
 14 11  1  0
 11 23  1  0
 23 12  2  0
 13 17  1  0
 18 13  1  0
 16 15  2  0
 15 22  1  0
 17 16  1  0
 17 26  2  0
 19 18  1  0
 18 27  2  0
 19 28  1  0
 31 19  2  0
 20 30  2  0
 20 31  1  0
 22 21  1  0
 22 25  2  0
 25 26  1  0
 28 29  2  0
 29 30  1  0
 30 32  1  0
 32 33  1  0
 33 34  1  0
  9 35  1  0
M  END
$$$$
