
     RDKit          3D

 35 38  0  0  0  0  0  0  0  0999 V2000
  -16.8928  -37.0614   -9.5665 C   0  0  0  0  0  0  0  0  0  0  0  0
  -17.0802  -38.4844   -8.9915 C   0  0  1  0  0  0  0  0  0  0  0  0
  -15.8085  -39.4721   -6.9830 C   0  0  0  0  0  0  0  0  0  0  0  0
  -15.0888  -39.8955   -9.5956 C   0  0  0  0  0  0  0  0  0  0  0  0
  -16.5518  -39.5027   -9.9508 C   0  0  2  0  0  0  0  0  0  0  0  0
  -16.3957  -38.9821  -11.3795 C   0  0  0  0  0  0  0  0  0  0  0  0
  -16.8468  -39.9276  -12.4367 C   0  0  0  0  0  0  0  0  0  0  0  0
  -16.4124  -38.4427   -7.7049 N   0  0  0  0  0  0  0  0  0  0  0  0
  -15.7086  -39.5796   -5.7185 N   0  0  0  0  0  0  0  0  0  0  0  0
  -17.1685  -42.4746  -13.0682 O   0  0  0  0  0  0  0  0  0  0  0  0
  -16.4565  -41.9655  -10.4976 C   0  0  0  0  0  0  0  0  0  0  0  0
  -14.8848  -41.8052  -12.7306 O   0  0  0  0  0  0  0  0  0  0  0  0
  -20.5272  -39.5384   -5.5532 N   0  0  0  0  0  0  0  0  0  0  0  0
  -17.2739  -40.8330   -9.9016 C   0  0  0  0  0  0  0  0  0  0  0  0
  -18.5403  -38.6635   -8.6318 C   0  0  0  0  0  0  0  0  0  0  0  0
  -18.9161  -38.9920   -7.3237 C   0  0  0  0  0  0  0  0  0  0  0  0
  -20.2081  -39.2051   -6.9054 C   0  0  0  0  0  0  0  0  0  0  0  0
  -21.4854  -40.5301   -5.2379 C   0  0  0  0  0  0  0  0  0  0  0  0
  -21.5442  -41.2583   -3.9655 C   0  0  0  0  0  0  0  0  0  0  0  0
  -20.6426  -41.5782   -1.8272 C   0  0  0  0  0  0  0  0  0  0  0  0
  -19.3079  -38.1897  -10.8554 F   0  0  0  0  0  0  0  0  0  0  0  0
  -19.5327  -38.5430   -9.5665 C   0  0  0  0  0  0  0  0  0  0  0  0
  -16.2769  -41.5937  -12.2240 S   0  0  2  0  0  6  0  0  0  0  0  0
  -15.0840  -40.7681   -7.9873 S   0  0  0  0  0  0  0  0  0  0  0  0
  -20.8532  -38.7566   -9.1607 C   0  0  0  0  0  0  0  0  0  0  0  0
  -21.1886  -39.0789   -7.8685 C   0  0  0  0  0  0  0  0  0  0  0  0
  -22.3480  -40.8134   -6.0984 O   0  0  0  0  0  0  0  0  0  0  0  0
  -22.4703  -42.2227   -3.7247 C   0  0  0  0  0  0  0  0  0  0  0  0
  -22.4836  -42.8535   -2.5581 N   0  0  0  0  0  0  0  0  0  0  0  0
  -21.5905  -42.5840   -1.5454 C   0  0  0  0  0  0  0  0  0  0  0  0
  -20.6498  -40.9595   -3.0057 N   0  0  0  0  0  0  0  0  0  0  0  0
  -21.6241  -43.2137   -0.4156 O   0  0  0  0  0  0  0  0  0  0  0  0
  -21.6619  -43.8057    0.7260 C   0  0  0  0  0  0  0  0  0  0  0  0
  -20.6567  -44.7542    0.9986 F   0  0  0  0  0  0  0  0  0  0  0  0
  -14.8694  -39.8111   -5.1878 H   0  0  0  0  0  0  0  0  0  0  0  0
  2  1  1  6
  2  5  1  0
  2  8  1  0
 15  2  1  0
  8  3  1  0
  3  9  2  0
  3 24  1  0
  5  4  1  1
  4 24  1  0
  5  6  1  0
  5 14  1  0
  6  7  1  0
 23  7  1  1
 23 10  2  0
 14 11  1  0
 11 23  1  0
 23 12  2  0
 13 17  1  0
 18 13  1  0
 16 15  2  0
 15 22  1  0
 17 16  1  0
 17 26  2  0
 19 18  1  0
 18 27  2  0
 19 28  1  0
 31 19  2  0
 20 30  2  0
 20 31  1  0
 22 21  1  0
 22 25  2  0
 25 26  1  0
 28 29  2  0
 29 30  1  0
 30 32  1  0
 32 33  1  0
 33 34  1  0
  9 35  1  0
M  END
$$$$
