
     RDKit          3D

 16 17  0  0  0  0  0  0  0  0999 V2000
   23.9575    4.5752   13.9596 N   0  0  0  0  0  0  0  0  0  0  0  0
   24.9382    2.1797    8.6006 C   0  0  0  0  0  0  0  0  0  0  0  0
   22.6407    6.9466   17.9586 C   0  0  0  0  0  0  0  0  0  0  0  0
   23.4116    4.5479   16.8623 C   0  0  0  0  0  0  0  0  0  0  0  0
   24.7398    3.6140   11.8102 N   0  0  0  0  0  0  0  0  0  0  0  0
   24.8514    3.8114   10.4148 C   0  0  0  0  0  0  0  0  0  0  0  0
   25.7676    2.9977    9.5600 C   0  0  0  0  0  0  0  0  0  0  0  0
   24.1363    4.7167    9.9049 O   0  0  0  0  0  0  0  0  0  0  0  0
   24.0108    4.5181   12.6438 C   0  0  0  0  0  0  0  0  0  0  0  0
   22.9867    5.7996   12.1788 S   0  0  0  0  0  0  0  0  0  0  0  0
   22.5395    6.3469   13.7346 C   0  0  0  0  0  0  0  0  0  0  0  0
   23.2309    5.4781   14.5471 C   0  0  0  0  0  0  0  0  0  0  0  0
   23.1346    5.5879   16.0103 C   0  0  0  0  0  0  0  0  0  0  0  0
   23.3053    4.7025   18.2444 C   0  0  0  0  0  0  0  0  0  0  0  0
   22.9224    5.8943   18.7863 C   0  0  0  0  0  0  0  0  0  0  0  0
   22.7521    6.7741   16.5840 C   0  0  0  0  0  0  0  0  0  0  0  0
  1  9  2  0
 12  1  1  0
  7  2  1  0
  3 15  2  0
 16  3  1  0
 13  4  1  0
  4 14  2  0
  5  6  1  0
  9  5  1  0
  6  7  1  0
  6  8  2  0
 10  9  1  0
 11 10  1  0
 12 11  2  0
 13 12  1  0
 13 16  2  0
 14 15  1  0
M  END
$$$$
