
     RDKit          3D

 16 17  0  0  0  0  0  0  0  0999 V2000
   23.4873    4.6443   12.8186 N   0  0  0  0  0  0  0  0  0  0  0  0
   25.8607    2.0475    7.8015 C   0  0  0  0  0  0  0  0  0  0  0  0
   22.7887    6.7087   17.1079 C   0  0  0  0  0  0  0  0  0  0  0  0
   21.6168    5.9563   14.7393 C   0  0  0  0  0  0  0  0  0  0  0  0
   24.0945    3.3769   10.7739 N   0  0  0  0  0  0  0  0  0  0  0  0
   25.1641    2.9060    9.9785 C   0  0  0  0  0  0  0  0  0  0  0  0
   25.0109    1.7721    9.0178 C   0  0  0  0  0  0  0  0  0  0  0  0
   26.2755    3.4877   10.1098 O   0  0  0  0  0  0  0  0  0  0  0  0
   24.2988    4.3144   11.8338 C   0  0  0  0  0  0  0  0  0  0  0  0
   25.6631    5.2903   12.1396 S   0  0  0  0  0  0  0  0  0  0  0  0
   25.1007    6.0830   13.5450 C   0  0  0  0  0  0  0  0  0  0  0  0
   23.8511    5.5280   13.6991 C   0  0  0  0  0  0  0  0  0  0  0  0
   22.9870    5.9337   14.8175 C   0  0  0  0  0  0  0  0  0  0  0  0
   20.8405    6.3494   15.8294 C   0  0  0  0  0  0  0  0  0  0  0  0
   21.4246    6.7225   17.0042 C   0  0  0  0  0  0  0  0  0  0  0  0
   23.5461    6.3141   16.0113 C   0  0  0  0  0  0  0  0  0  0  0  0
  1  9  2  0
 12  1  1  0
  7  2  1  0
  3 15  2  0
 16  3  1  0
 13  4  1  0
  4 14  2  0
  5  6  1  0
  9  5  1  0
  6  7  1  0
  6  8  2  0
 10  9  1  0
 11 10  1  0
 12 11  2  0
 13 12  1  0
 13 16  2  0
 14 15  1  0
M  END
$$$$
