
     RDKit          3D

 16 17  0  0  0  0  0  0  0  0999 V2000
   23.7364    4.7355   12.9985 N   0  0  0  0  0  0  0  0  0  0  0  0
   26.4123    2.1211    8.0787 C   0  0  0  0  0  0  0  0  0  0  0  0
   20.9540    6.4429   15.7975 C   0  0  0  0  0  0  0  0  0  0  0  0
   23.6791    6.5746   16.1229 C   0  0  0  0  0  0  0  0  0  0  0  0
   24.3836    3.3800   11.0238 N   0  0  0  0  0  0  0  0  0  0  0  0
   25.3711    3.1293   10.0436 C   0  0  0  0  0  0  0  0  0  0  0  0
   25.1865    2.1186    8.9589 C   0  0  0  0  0  0  0  0  0  0  0  0
   26.4356    3.8018   10.1172 O   0  0  0  0  0  0  0  0  0  0  0  0
   24.5473    4.3957   12.0165 C   0  0  0  0  0  0  0  0  0  0  0  0
   25.8498    5.4760   12.2252 S   0  0  0  0  0  0  0  0  0  0  0  0
   25.2654    6.3202   13.5912 C   0  0  0  0  0  0  0  0  0  0  0  0
   24.0590    5.6963   13.8116 C   0  0  0  0  0  0  0  0  0  0  0  0
   23.1934    6.1168   14.9234 C   0  0  0  0  0  0  0  0  0  0  0  0
   22.8160    6.9621   17.1477 C   0  0  0  0  0  0  0  0  0  0  0  0
   21.4634    6.8957   16.9838 C   0  0  0  0  0  0  0  0  0  0  0  0
   21.8293    6.0612   14.7877 C   0  0  0  0  0  0  0  0  0  0  0  0
  1  9  2  0
 12  1  1  0
  7  2  1  0
  3 15  2  0
 16  3  1  0
 13  4  1  0
  4 14  2  0
  5  6  1  0
  9  5  1  0
  6  7  1  0
  6  8  2  0
 10  9  1  0
 11 10  1  0
 12 11  2  0
 13 12  1  0
 13 16  2  0
 14 15  1  0
M  END
$$$$
