
     RDKit          3D

 16 17  0  0  0  0  0  0  0  0999 V2000
   23.7665    4.8985   12.3838 N   0  0  0  0  0  0  0  0  0  0  0  0
   26.3861    0.8130    8.8279 C   0  0  0  0  0  0  0  0  0  0  0  0
   20.9988    6.7452   15.0754 C   0  0  0  0  0  0  0  0  0  0  0  0
   23.7097    6.7562   15.5230 C   0  0  0  0  0  0  0  0  0  0  0  0
   24.3877    3.5313   10.4088 N   0  0  0  0  0  0  0  0  0  0  0  0
   25.4597    2.8654    9.7716 C   0  0  0  0  0  0  0  0  0  0  0  0
   25.2465    1.7990    8.7472 C   0  0  0  0  0  0  0  0  0  0  0  0
   26.6268    3.2093   10.1041 O   0  0  0  0  0  0  0  0  0  0  0  0
   24.6048    4.4782   11.4577 C   0  0  0  0  0  0  0  0  0  0  0  0
   26.0235    5.3506   11.8233 S   0  0  0  0  0  0  0  0  0  0  0  0
   25.4457    6.2237   13.1738 C   0  0  0  0  0  0  0  0  0  0  0  0
   24.1485    5.7742   13.2645 C   0  0  0  0  0  0  0  0  0  0  0  0
   23.2560    6.2779   14.3191 C   0  0  0  0  0  0  0  0  0  0  0  0
   22.8219    7.2234   16.4920 C   0  0  0  0  0  0  0  0  0  0  0  0
   21.4765    7.2169   16.2675 C   0  0  0  0  0  0  0  0  0  0  0  0
   21.8983    6.2836   14.1217 C   0  0  0  0  0  0  0  0  0  0  0  0
  1  9  2  0
 12  1  1  0
  7  2  1  0
  3 15  2  0
 16  3  1  0
 13  4  1  0
  4 14  2  0
  5  6  1  0
  9  5  1  0
  6  7  1  0
  6  8  2  0
 10  9  1  0
 11 10  1  0
 12 11  2  0
 13 12  1  0
 13 16  2  0
 14 15  1  0
M  END
$$$$
