
     RDKit          3D

 16 17  0  0  0  0  0  0  0  0999 V2000
   23.9648    4.7662   13.8683 N   0  0  0  0  0  0  0  0  0  0  0  0
   25.2466    2.1095    8.6826 C   0  0  0  0  0  0  0  0  0  0  0  0
   23.4885    5.1583   18.0698 C   0  0  0  0  0  0  0  0  0  0  0  0
   22.8223    7.2135   16.3722 C   0  0  0  0  0  0  0  0  0  0  0  0
   24.6196    3.5408   11.8127 N   0  0  0  0  0  0  0  0  0  0  0  0
   25.1608    3.7167   10.5185 C   0  0  0  0  0  0  0  0  0  0  0  0
   26.0069    2.6795    9.8549 C   0  0  0  0  0  0  0  0  0  0  0  0
   24.8999    4.8017    9.9307 O   0  0  0  0  0  0  0  0  0  0  0  0
   24.0868    4.6353   12.5624 C   0  0  0  0  0  0  0  0  0  0  0  0
   23.4470    6.1063   11.9845 S   0  0  0  0  0  0  0  0  0  0  0  0
   23.0510    6.8202   13.4857 C   0  0  0  0  0  0  0  0  0  0  0  0
   23.4500    5.8472   14.3730 C   0  0  0  0  0  0  0  0  0  0  0  0
   23.2900    6.0467   15.8210 C   0  0  0  0  0  0  0  0  0  0  0  0
   22.6885    7.3536   17.7535 C   0  0  0  0  0  0  0  0  0  0  0  0
   23.0199    6.3318   18.5942 C   0  0  0  0  0  0  0  0  0  0  0  0
   23.6152    5.0369   16.6911 C   0  0  0  0  0  0  0  0  0  0  0  0
  1  9  2  0
 12  1  1  0
  7  2  1  0
  3 15  2  0
 16  3  1  0
 13  4  1  0
  4 14  2  0
  5  6  1  0
  9  5  1  0
  6  7  1  0
  6  8  2  0
 10  9  1  0
 11 10  1  0
 12 11  2  0
 13 12  1  0
 13 16  2  0
 14 15  1  0
M  END
$$$$
