
     RDKit          3D

 16 17  0  0  0  0  0  0  0  0999 V2000
   23.7270    4.7741   13.8244 N   0  0  0  0  0  0  0  0  0  0  0  0
   26.4460    1.9666    9.5084 C   0  0  0  0  0  0  0  0  0  0  0  0
   22.0348    5.0629   17.7195 C   0  0  0  0  0  0  0  0  0  0  0  0
   23.1553    7.2447   16.4809 C   0  0  0  0  0  0  0  0  0  0  0  0
   24.4160    3.5417   11.7843 N   0  0  0  0  0  0  0  0  0  0  0  0
   24.9553    3.6379   10.4810 C   0  0  0  0  0  0  0  0  0  0  0  0
   25.0237    2.4692    9.5527 C   0  0  0  0  0  0  0  0  0  0  0  0
   25.3857    4.7674   10.1206 O   0  0  0  0  0  0  0  0  0  0  0  0
   24.1587    4.7004   12.5813 C   0  0  0  0  0  0  0  0  0  0  0  0
   24.3356    6.3420   12.1560 S   0  0  0  0  0  0  0  0  0  0  0  0
   23.8341    7.0438   13.6311 C   0  0  0  0  0  0  0  0  0  0  0  0
   23.5506    5.9310   14.3891 C   0  0  0  0  0  0  0  0  0  0  0  0
   23.0714    6.0722   15.7721 C   0  0  0  0  0  0  0  0  0  0  0  0
   22.6860    7.3279   17.7917 C   0  0  0  0  0  0  0  0  0  0  0  0
   22.1301    6.2434   18.4045 C   0  0  0  0  0  0  0  0  0  0  0  0
   22.5077    4.9987   16.4141 C   0  0  0  0  0  0  0  0  0  0  0  0
  1  9  2  0
 12  1  1  0
  7  2  1  0
  3 15  2  0
 16  3  1  0
 13  4  1  0
  4 14  2  0
  5  6  1  0
  9  5  1  0
  6  7  1  0
  6  8  2  0
 10  9  1  0
 11 10  1  0
 12 11  2  0
 13 12  1  0
 13 16  2  0
 14 15  1  0
M  END
$$$$
