
     RDKit          3D

 16 17  0  0  0  0  0  0  0  0999 V2000
   24.1592    4.6224   14.1107 N   0  0  0  0  0  0  0  0  0  0  0  0
   25.8285    3.0265    8.4137 C   0  0  0  0  0  0  0  0  0  0  0  0
   22.2357    6.8570   17.9650 C   0  0  0  0  0  0  0  0  0  0  0  0
   24.0916    5.0770   16.9971 C   0  0  0  0  0  0  0  0  0  0  0  0
   24.9990    3.5745   12.0244 N   0  0  0  0  0  0  0  0  0  0  0  0
   24.8927    3.5120   10.6160 C   0  0  0  0  0  0  0  0  0  0  0  0
   25.6048    2.4806    9.8027 C   0  0  0  0  0  0  0  0  0  0  0  0
   24.1612    4.3743   10.0574 O   0  0  0  0  0  0  0  0  0  0  0  0
   24.1804    4.4496   12.8042 C   0  0  0  0  0  0  0  0  0  0  0  0
   22.9802    5.5369   12.2704 S   0  0  0  0  0  0  0  0  0  0  0  0
   22.5103    6.1644   13.7888 C   0  0  0  0  0  0  0  0  0  0  0  0
   23.3359    5.4735   14.6456 C   0  0  0  0  0  0  0  0  0  0  0  0
   23.2695    5.7065   16.0960 C   0  0  0  0  0  0  0  0  0  0  0  0
   23.9893    5.3322   18.3645 C   0  0  0  0  0  0  0  0  0  0  0  0
   23.0670    6.2164   18.8426 C   0  0  0  0  0  0  0  0  0  0  0  0
   22.3521    6.5900   16.6060 C   0  0  0  0  0  0  0  0  0  0  0  0
  1  9  2  0
 12  1  1  0
  7  2  1  0
  3 15  2  0
 16  3  1  0
 13  4  1  0
  4 14  2  0
  5  6  1  0
  9  5  1  0
  6  7  1  0
  6  8  2  0
 10  9  1  0
 11 10  1  0
 12 11  2  0
 13 12  1  0
 13 16  2  0
 14 15  1  0
M  END
$$$$
