
     RDKit          3D

 16 17  0  0  0  0  0  0  0  0999 V2000
   23.7715    4.5646   12.2315 N   0  0  0  0  0  0  0  0  0  0  0  0
   25.4894    0.3235    8.5294 C   0  0  0  0  0  0  0  0  0  0  0  0
   21.0872    6.8282   14.6883 C   0  0  0  0  0  0  0  0  0  0  0  0
   23.7959    6.7521   15.1431 C   0  0  0  0  0  0  0  0  0  0  0  0
   24.3349    2.9539   10.4304 N   0  0  0  0  0  0  0  0  0  0  0  0
   25.2833    2.5741    9.4532 C   0  0  0  0  0  0  0  0  0  0  0  0
   24.9323    1.7053    8.2895 C   0  0  0  0  0  0  0  0  0  0  0  0
   26.4605    3.0025    9.5998 O   0  0  0  0  0  0  0  0  0  0  0  0
   24.5870    4.0165   11.3530 C   0  0  0  0  0  0  0  0  0  0  0  0
   26.0283    4.8957   11.5915 S   0  0  0  0  0  0  0  0  0  0  0  0
   25.4889    5.9391   12.8326 C   0  0  0  0  0  0  0  0  0  0  0  0
   24.1844    5.5324   12.9938 C   0  0  0  0  0  0  0  0  0  0  0  0
   23.3184    6.1801   13.9903 C   0  0  0  0  0  0  0  0  0  0  0  0
   22.9327    7.3548   16.0580 C   0  0  0  0  0  0  0  0  0  0  0  0
   21.5883    7.3914   15.8300 C   0  0  0  0  0  0  0  0  0  0  0  0
   21.9624    6.2321   13.7881 C   0  0  0  0  0  0  0  0  0  0  0  0
  1  9  2  0
 12  1  1  0
  7  2  1  0
  3 15  2  0
 16  3  1  0
 13  4  1  0
  4 14  2  0
  5  6  1  0
  9  5  1  0
  6  7  1  0
  6  8  2  0
 10  9  1  0
 11 10  1  0
 12 11  2  0
 13 12  1  0
 13 16  2  0
 14 15  1  0
M  END
$$$$
