
     RDKit          3D

119126  0  0  0  0  0  0  0  0999 V2000
   28.8682   40.3531   12.8566 C   0  0  0  0  0  0  0  0  0  0  0  0
   25.5211   40.8630    9.9803 N   0  0  0  0  0  0  0  0  0  0  0  0
   28.7947   41.8106   12.5703 C   0  0  0  0  0  0  0  0  0  0  0  0
   26.0224   40.8090   11.3687 C   0  0  0  0  0  0  0  0  0  0  0  0
   23.6969   43.4808    2.5412 O   0  0  0  0  0  1  0  0  0  0  0  0
   26.3983   42.1672   11.8293 C   0  0  2  0  0  0  0  0  0  0  0  0
   23.6675   42.3052    4.6880 C   0  0  0  0  0  0  0  0  0  0  0  0
   22.3894   41.8723    4.5366 C   0  0  0  0  0  0  0  0  0  0  0  0
   21.6487   41.1440    5.5166 C   0  0  0  0  0  0  0  0  0  0  0  0
   22.2746   40.8585    6.7033 C   0  0  0  0  0  0  0  0  0  0  0  0
   25.7529   40.5396    7.8760 N   0  0  0  0  0  0  0  0  0  0  0  0
   24.2375   41.9883    5.8981 C   0  0  0  0  0  0  0  0  0  0  0  0
   23.5719   41.2689    6.9253 C   0  0  0  0  0  0  0  0  0  0  0  0
   24.4669   41.0705    8.1064 C   0  0  0  0  0  0  0  0  0  0  0  0
   26.3444   43.9412   13.2867 O   0  0  0  0  0  0  0  0  0  0  0  0
   27.8357   42.4568   11.7904 N   0  0  0  0  0  0  0  0  0  0  0  0
   30.1741   38.5020   13.7712 C   0  0  0  0  0  0  0  0  0  0  0  0
   25.5866   43.2541    3.7717 O   0  0  0  0  0  0  0  0  0  0  0  0
   24.3675   41.2607    9.4635 C   0  0  0  0  0  0  0  0  0  0  0  0
   15.9559   35.0646    6.7977 O   0  0  0  0  0  0  0  0  0  0  0  0
   13.5648   37.0654    3.6310 O   0  0  0  0  0  0  0  0  0  0  0  0
   15.0945   39.3985    1.8086 O   0  0  0  0  0  0  0  0  0  0  0  0
   30.0876   39.8766   13.3658 N   0  0  0  0  0  0  0  0  0  0  0  0
   29.3268   37.4613   13.1381 C   0  0  0  0  0  0  0  0  0  0  0  0
   30.9715   38.1359   14.6710 O   0  0  0  0  0  0  0  0  0  0  0  0
   29.7155   42.4952   13.1054 O   0  0  0  0  0  0  0  0  0  0  0  0
   26.3504   40.4267    8.9919 N   0  0  0  0  0  0  0  0  0  0  0  0
   18.2802   40.0702    4.4602 N   0  0  0  0  0  0  0  0  0  0  0  0
   15.9647   41.4396    4.5886 N   0  0  0  0  0  0  0  0  0  0  0  0
   13.5320   39.6464    3.4703 N   0  0  0  0  0  0  0  0  0  0  0  0
   13.0412   36.8692    5.8532 N   0  0  0  0  0  0  0  0  0  0  0  0
   15.5069   37.3479    6.8391 N   0  0  0  0  0  0  0  0  0  0  0  0
   18.3555   41.3790    4.2039 N   0  0  0  0  0  0  0  0  0  0  0  0
   19.4613   41.8926    4.5184 N   0  0  0  0  0  0  0  0  0  0  0  0
   20.2500   40.8500    5.0527 C   0  0  0  0  0  0  0  0  0  0  0  0
   19.4645   39.7298    4.9918 C   0  0  0  0  0  0  0  0  0  0  0  0
   17.0936   39.3156    4.1524 C   0  0  0  0  0  0  0  0  0  0  0  0
   15.9508   40.3105    3.7936 C   0  0  1  0  0  0  0  0  0  0  0  0
   14.8543   39.7721    2.9853 C   0  0  0  0  0  0  0  0  0  0  0  0
   13.3849   39.1561    4.8483 C   0  0  0  0  0  0  0  0  0  0  0  0
   13.3412   37.6595    4.7191 C   0  0  0  0  0  0  0  0  0  0  0  0
   13.8076   35.6450    6.0534 C   0  0  0  0  0  0  0  0  0  0  0  0
   15.1329   36.0116    6.5779 C   0  0  0  0  0  0  0  0  0  0  0  0
   24.3591   43.0318    3.6529 C   0  0  0  0  0  0  0  0  0  0  0  0
   25.7889   42.7446   13.0105 C   0  0  0  0  0  0  0  0  0  0  0  0
   24.8168   42.4511   13.9449 N   0  0  0  0  0  0  0  0  0  0  0  0
   24.2015   41.2516   14.4186 C   0  0  2  0  0  0  0  0  0  0  0  0
   22.9319   41.4773   15.2027 C   0  0  0  0  0  0  0  0  0  0  0  0
   22.3164   40.3407   15.3758 O   0  0  0  0  0  0  0  0  0  0  0  0
   25.0553   40.2143   15.0188 C   0  0  0  0  0  0  0  0  0  0  0  0
   26.5208   40.4025   15.0657 C   0  0  0  0  0  0  0  0  0  0  0  0
   27.0595   41.2218   16.1872 C   0  0  0  0  0  0  0  0  0  0  0  0
   28.5301   41.1815   16.1099 N   0  0  0  0  0  0  0  0  0  0  0  0
   29.3056   41.7886   17.1666 C   0  0  0  0  0  0  0  0  0  0  0  0
   30.6030   41.7287   17.0930 N   0  0  0  0  0  4  0  0  0  0  0  0
   28.6828   42.4414   18.2554 N   0  0  0  0  0  0  0  0  0  0  0  0
   22.3595   42.6141   15.7199 N   0  0  0  0  0  0  0  0  0  0  0  0
   22.6167   43.4244   16.8824 C   0  0  2  0  0  0  0  0  0  0  0  0
   22.6195   44.8768   16.6421 C   0  0  0  0  0  0  0  0  0  0  0  0
   23.6673   45.3489   16.0545 O   0  0  0  0  0  0  0  0  0  0  0  0
   23.8361   42.9988   17.6752 C   0  0  0  0  0  0  0  0  0  0  0  0
   24.1451   41.5486   17.2648 C   0  0  1  0  0  0  0  0  0  0  0  0
   22.8975   40.7039   17.3161 C   0  0  0  0  0  0  0  0  0  0  0  0
   24.6312   41.5102   15.8251 C   0  0  0  0  0  0  0  0  0  0  0  0
   21.6446   45.8187   16.9628 N   0  0  0  0  0  0  0  0  0  0  0  0
   20.2378   45.8093   16.7417 C   0  0  2  0  0  0  0  0  0  0  0  0
   19.8611   46.8143   15.7104 C   0  0  0  0  0  0  0  0  0  0  0  0
   20.7582   47.5963   15.2543 O   0  0  0  0  0  0  0  0  0  0  0  0
   19.4700   46.0724   18.0536 C   0  0  0  0  0  0  0  0  0  0  0  0
   18.3846   45.0880   18.2148 C   0  0  0  0  0  0  0  0  0  0  0  0
   17.5187   45.1568   19.2783 C   0  0  0  0  0  0  0  0  0  0  0  0
   18.1798   44.0729   17.3150 C   0  0  0  0  0  0  0  0  0  0  0  0
   16.4845   44.2713   19.4678 C   0  0  0  0  0  0  0  0  0  0  0  0
   17.1511   43.1654   17.4717 C   0  0  0  0  0  0  0  0  0  0  0  0
   16.3130   43.2609   18.5337 C   0  0  0  0  0  0  0  0  0  0  0  0
   15.2522   42.3462   18.7162 O   0  0  0  0  0  0  0  0  0  0  0  0
   18.5555   46.9700   15.1902 N   0  0  0  0  0  0  0  0  0  0  0  0
   17.6546   45.8819   14.8660 C   0  0  0  0  0  0  0  0  0  0  0  0
   16.3733   46.3980   14.3135 C   0  0  0  0  0  0  0  0  0  0  0  0
   16.4301   47.2189   13.3630 O   0  0  0  0  0  0  0  0  0  0  0  0
   15.0848   46.0108   14.8060 N   0  0  0  0  0  0  0  0  0  0  0  0
   14.7424   44.6912   15.1889 C   0  0  2  0  0  0  0  0  0  0  0  0
   14.0956   43.8237   14.1883 C   0  0  0  0  0  0  0  0  0  0  0  0
   13.7445   42.6889   14.7414 O   0  0  0  0  0  0  0  0  0  0  0  0
   14.1477   44.5354   16.5639 C   0  0  0  0  0  0  0  0  0  0  0  0
   14.6799   45.4052   17.6020 C   0  0  0  0  0  0  0  0  0  0  0  0
   15.0133   44.8080   18.8185 C   0  0  0  0  0  0  0  0  0  0  0  0
   14.8382   46.7731   17.4313 C   0  0  0  0  0  0  0  0  0  0  0  0
   15.4956   45.5662   19.8433 C   0  0  0  0  0  0  0  0  0  0  0  0
   15.3226   47.5498   18.4580 C   0  0  0  0  0  0  0  0  0  0  0  0
   15.6406   46.9253   19.6406 C   0  0  0  0  0  0  0  0  0  0  0  0
   13.8079   43.9659   12.8491 N   0  0  0  0  0  0  0  0  0  0  0  0
   12.7791   44.6636   12.1136 C   0  0  2  0  0  0  0  0  0  0  0  0
   13.3378   45.4287   10.9643 C   0  0  0  0  0  0  0  0  0  0  0  0
   14.4602   46.0073   11.2650 O   0  0  0  0  0  0  0  0  0  0  0  0
   11.9273   45.5313   12.9945 C   0  0  0  0  0  0  0  0  0  0  0  0
   12.2889   45.5501   14.4334 C   0  0  0  0  0  0  0  0  0  0  0  0
   13.6507   44.9782   14.6433 C   0  0  0  0  0  0  0  0  0  0  0  0
   13.6146   43.4544   14.6753 C   0  0  0  0  0  0  0  0  0  0  0  0
   14.9579   42.9327   14.9453 N   0  0  0  0  0  4  0  0  0  0  0  0
   12.8104   45.5827    9.6782 N   0  0  0  0  0  0  0  0  0  0  0  0
   12.6007   44.6346    8.6091 C   0  0  2  0  0  0  0  0  0  0  0  0
   13.7328   43.6986    8.4374 C   0  0  0  0  0  0  0  0  0  0  0  0
   14.1955   43.3550    9.6220 O   0  0  0  0  0  0  0  0  0  0  0  0
   12.2751   45.4511    7.3711 C   0  0  2  0  0  0  0  0  0  0  0  0
   12.5862   44.6873    6.1097 C   0  0  0  0  0  0  0  0  0  0  0  0
   13.1606   46.6821    7.4081 C   0  0  0  0  0  0  0  0  0  0  0  0
   13.7804   43.8084    6.1808 C   0  0  0  0  0  0  0  0  0  0  0  0
   14.3992   43.1257    7.3957 N   0  0  0  0  0  0  0  0  0  0  0  0
   14.2649   42.0233    6.4772 C   0  0  2  0  0  0  0  0  0  0  0  0
   15.6174   41.7680    5.8685 C   0  0  0  0  0  0  0  0  0  0  0  0
   16.5524   41.9073    6.7794 O   0  0  0  0  0  0  0  0  0  0  0  0
   13.1409   42.0034    5.5375 C   0  0  0  0  0  0  0  0  0  0  0  0
   12.3557   43.2539    5.3958 C   0  0  0  0  0  0  0  0  0  0  0  0
   11.5574   43.8977    6.2485 N   0  0  0  0  0  0  0  0  0  0  0  0
   12.3280   44.0329    4.2207 C   0  0  0  0  0  0  0  0  0  0  0  0
   11.0677   44.9945    5.6588 C   0  0  0  0  0  0  0  0  0  0  0  0
   11.5376   45.0800    4.4183 N   0  0  0  0  0  0  0  0  0  0  0  0
   16.4347   41.5062    3.3022 O   0  0  0  0  0  0  0  0  0  0  0  0
  3  1  1  0
  1 23  1  0
  2  4  1  0
 19  2  1  0
  2 27  1  0
 16  3  1  0
  3 26  2  0
  4  6  1  0
 44  5  1  0
  6 16  1  1
  6 45  1  0
  8  7  1  0
  7 12  2  0
  7 44  1  0
  9  8  2  0
  9 10  1  0
 35  9  1  0
 10 13  2  0
 14 11  1  0
 11 27  2  0
 13 12  1  0
 13 14  1  0
 14 19  2  0
 45 15  2  0
 23 17  1  0
 17 24  1  0
 17 25  2  0
 44 18  2  0
 43 20  2  0
 41 21  2  0
 39 22  2  0
 28 33  1  0
 28 36  1  0
 37 28  1  0
 38 29  1  0
 29111  1  0
119 29  1  0
 30 39  1  0
 40 30  1  0
 31 41  1  0
 42 31  1  0
 43 32  1  0
 33 34  2  0
 35 34  1  0
 36 35  2  0
 38 37  1  0
 38 39  1  6
 38119  1  0
 41 40  1  0
 42 43  1  0
 45 46  1  0
 46 47  1  0
 47 48  1  0
 47 50  1  1
 48 49  2  0
 48 57  1  0
 50 51  1  0
 51 52  1  0
 52 53  1  0
 53 54  1  0
 54 55  2  0
 54 56  1  0
 57 58  1  0
 58 59  1  0
 58 61  1  6
 59 60  2  0
 59 65  1  0
 61 62  1  0
 62 63  1  6
 62 64  1  0
 65 66  1  0
 66 67  1  0
 66 69  1  1
 67 68  2  0
 67 77  1  0
 69 70  1  0
 70 71  2  0
 70 72  1  0
 71 73  1  0
 72 74  2  0
 73 75  2  0
 74 75  1  0
 75 76  1  0
 77 78  1  0
 78 79  1  0
 79 80  2  0
 79 81  1  0
 81 82  1  0
 82 83  1  0
 82 85  1  1
 83 84  2  0
 83 92  1  0
 85 86  1  0
 86 87  2  0
 86 88  1  0
 87 89  1  0
 88 90  2  0
 89 91  2  0
 90 91  1  0
 92 93  1  0
 93 94  1  0
 93 96  1  1
 94 95  2  0
 94101  1  0
 96 97  1  0
 97 98  1  0
 98 99  1  0
 99100  1  0
102101  1  1
102103  1  0
102105  1  0
103104  2  0
103109  1  0
105106  1  0
105107  1  1
106108  1  0
109110  1  0
110111  1  0
110113  1  6
111112  2  0
113114  1  0
114115  1  0
114116  2  0
115117  2  0
116118  1  0
117118  1  0
M  CHG  3   5  -1  55   1 100   1
M  END
$$$$
