
     RDKit          3D

119126  0  0  0  0  0  0  0  0999 V2000
   26.2056   48.8294    5.0401 C   0  0  0  0  0  0  0  0  0  0  0  0
   26.1839   51.7731    7.7178 N   0  0  0  0  0  0  0  0  0  0  0  0
   25.2731   48.4776    6.1440 C   0  0  0  0  0  0  0  0  0  0  0  0
   25.5854   51.3535    6.4342 C   0  0  0  0  0  0  0  0  0  0  0  0
   27.0153   52.6463   15.5945 O   0  0  0  0  0  1  0  0  0  0  0  0
   24.2566   50.7386    6.6669 C   0  0  2  0  0  0  0  0  0  0  0  0
   27.4303   53.0739   13.2204 C   0  0  0  0  0  0  0  0  0  0  0  0
   27.6870   54.4042   13.3104 C   0  0  0  0  0  0  0  0  0  0  0  0
   27.6869   55.3158   12.2110 C   0  0  0  0  0  0  0  0  0  0  0  0
   27.4062   54.8106   10.9670 C   0  0  0  0  0  0  0  0  0  0  0  0
   27.5776   51.5175    9.3235 N   0  0  0  0  0  0  0  0  0  0  0  0
   27.1557   52.6307   11.9484 C   0  0  0  0  0  0  0  0  0  0  0  0
   27.1348   53.4690   10.8027 C   0  0  0  0  0  0  0  0  0  0  0  0
   26.8227   52.6830    9.5697 C   0  0  0  0  0  0  0  0  0  0  0  0
   21.9991   50.5067    6.3145 O   0  0  0  0  0  0  0  0  0  0  0  0
   24.2424   49.2720    6.6459 N   0  0  0  0  0  0  0  0  0  0  0  0
   28.5013   48.8228    4.2050 C   0  0  0  0  0  0  0  0  0  0  0  0
   27.8823   51.0371   14.2547 O   0  0  0  0  0  0  0  0  0  0  0  0
   25.9468   52.8024    8.5180 C   0  0  0  0  0  0  0  0  0  0  0  0
   25.7407   67.4904   10.2896 O   0  0  0  0  0  0  0  0  0  0  0  0
   29.0368   65.7306   13.0757 O   0  0  0  0  0  0  0  0  0  0  0  0
   29.5618   62.0597   15.8201 O   0  0  0  0  0  0  0  0  0  0  0  0
   27.5683   48.5756    5.2678 N   0  0  0  0  0  0  0  0  0  0  0  0
   28.5482   47.9483    3.0071 C   0  0  0  0  0  0  0  0  0  0  0  0
   29.3045   49.7883    4.2530 O   0  0  0  0  0  0  0  0  0  0  0  0
   25.4724   47.3352    6.6521 O   0  0  0  0  0  0  0  0  0  0  0  0
   27.1837   51.0033    8.2302 N   0  0  0  0  0  0  0  0  0  0  0  0
   28.6464   58.7801   13.0441 N   0  0  0  0  0  0  0  0  0  0  0  0
   27.0864   60.7848   13.9389 N   0  0  0  0  0  0  0  0  0  0  0  0
   29.4217   63.3144   13.9041 N   0  0  0  0  0  0  0  0  0  0  0  0
   28.4218   65.2509   10.9211 N   0  0  0  0  0  0  0  0  0  0  0  0
   28.0396   67.8030   10.1049 N   0  0  0  0  0  0  0  0  0  0  0  0
   27.6856   58.4380   13.9067 N   0  0  0  0  0  0  0  0  0  0  0  0
   27.2513   57.2677   13.7414 N   0  0  0  0  0  0  0  0  0  0  0  0
   27.9702   56.7233   12.6544 C   0  0  0  0  0  0  0  0  0  0  0  0
   28.8320   57.7101   12.2555 C   0  0  0  0  0  0  0  0  0  0  0  0
   29.2687   60.0771   13.0945 C   0  0  0  0  0  0  0  0  0  0  0  0
   28.4476   60.9854   14.0566 C   0  0  1  0  0  0  0  0  0  0  0  0
   29.1593   62.1298   14.6305 C   0  0  0  0  0  0  0  0  0  0  0  0
   28.8956   63.3705   12.5327 C   0  0  0  0  0  0  0  0  0  0  0  0
   28.7963   64.8371   12.2208 C   0  0  0  0  0  0  0  0  0  0  0  0
   27.0172   65.5611   10.6824 C   0  0  0  0  0  0  0  0  0  0  0  0
   26.9109   66.9911   10.3513 C   0  0  0  0  0  0  0  0  0  0  0  0
   27.4531   52.2084   14.3728 C   0  0  0  0  0  0  0  0  0  0  0  0
   23.0702   51.2738    6.0297 C   0  0  0  0  0  0  0  0  0  0  0  0
   22.6930   52.3246    5.2185 N   0  0  0  0  0  0  0  0  0  0  0  0
   23.3704   53.1836    4.2993 C   0  0  2  0  0  0  0  0  0  0  0  0
   22.5894   54.4172    3.9172 C   0  0  0  0  0  0  0  0  0  0  0  0
   23.3690   55.2509    3.2866 O   0  0  0  0  0  0  0  0  0  0  0  0
   24.0602   52.5773    3.1497 C   0  0  0  0  0  0  0  0  0  0  0  0
   23.5107   51.3581    2.5199 C   0  0  0  0  0  0  0  0  0  0  0  0
   22.3011   50.7600    3.1513 C   0  0  0  0  0  0  0  0  0  0  0  0
   21.5424   51.8474    3.7932 N   0  0  0  0  0  0  0  0  0  0  0  0
   20.3683   51.5215    4.5689 C   0  0  0  0  0  0  0  0  0  0  0  0
   20.5163   50.7938    5.6370 N   0  0  0  0  0  4  0  0  0  0  0  0
   19.0855   51.9820    4.1921 N   0  0  0  0  0  0  0  0  0  0  0  0
   21.2795   54.7772    4.1222 N   0  0  0  0  0  0  0  0  0  0  0  0
   20.0329   54.4170    3.4974 C   0  0  2  0  0  0  0  0  0  0  0  0
   18.9321   54.1185    4.4282 C   0  0  0  0  0  0  0  0  0  0  0  0
   18.9904   52.9736    5.0215 O   0  0  0  0  0  0  0  0  0  0  0  0
   20.1606   53.3409    2.4381 C   0  0  0  0  0  0  0  0  0  0  0  0
   20.6130   52.0607    3.1617 C   0  0  1  0  0  0  0  0  0  0  0  0
   22.0495   52.1788    3.6035 C   0  0  0  0  0  0  0  0  0  0  0  0
   19.7902   51.8612    4.4241 C   0  0  0  0  0  0  0  0  0  0  0  0
   17.8293   54.9024    4.7595 N   0  0  0  0  0  0  0  0  0  0  0  0
   17.7459   56.2726    5.1385 C   0  0  2  0  0  0  0  0  0  0  0  0
   17.3758   56.3990    6.5747 C   0  0  0  0  0  0  0  0  0  0  0  0
   17.0828   55.3467    7.2313 O   0  0  0  0  0  0  0  0  0  0  0  0
   16.7341   57.0303    4.2545 C   0  0  0  0  0  0  0  0  0  0  0  0
   15.4799   56.2636    4.1439 C   0  0  0  0  0  0  0  0  0  0  0  0
   15.2926   55.1058    4.8580 C   0  0  0  0  0  0  0  0  0  0  0  0
   14.4443   56.6695    3.3409 C   0  0  0  0  0  0  0  0  0  0  0  0
   14.1386   54.3612    4.7990 C   0  0  0  0  0  0  0  0  0  0  0  0
   13.2699   55.9482    3.2567 C   0  0  0  0  0  0  0  0  0  0  0  0
   13.1166   54.8082    3.9752 C   0  0  0  0  0  0  0  0  0  0  0  0
   11.9249   54.0528    3.9079 O   0  0  0  0  0  0  0  0  0  0  0  0
   17.3224   57.6245    7.2780 N   0  0  0  0  0  0  0  0  0  0  0  0
   18.2762   58.7066    7.1362 C   0  0  0  0  0  0  0  0  0  0  0  0
   17.9391   59.8362    8.0439 C   0  0  0  0  0  0  0  0  0  0  0  0
   17.7457   59.5777    9.2590 O   0  0  0  0  0  0  0  0  0  0  0  0
   17.8230   61.1958    7.6076 N   0  0  0  0  0  0  0  0  0  0  0  0
   18.6885   61.8072    6.6683 C   0  0  2  0  0  0  0  0  0  0  0  0
   19.8427   62.5674    7.1800 C   0  0  0  0  0  0  0  0  0  0  0  0
   20.4631   63.1584    6.1886 O   0  0  0  0  0  0  0  0  0  0  0  0
   18.0227   62.4805    5.4969 C   0  0  0  0  0  0  0  0  0  0  0  0
   16.7869   63.1956    5.7777 C   0  0  0  0  0  0  0  0  0  0  0  0
   16.0548   63.6493    4.6796 C   0  0  0  0  0  0  0  0  0  0  0  0
   16.3408   63.4528    7.0662 C   0  0  0  0  0  0  0  0  0  0  0  0
   14.8992   64.3466    4.8687 C   0  0  0  0  0  0  0  0  0  0  0  0
   15.1769   64.1566    7.2708 C   0  0  0  0  0  0  0  0  0  0  0  0
   14.4833   64.5862    6.1644 C   0  0  0  0  0  0  0  0  0  0  0  0
   20.3726   62.7627    8.4360 N   0  0  0  0  0  0  0  0  0  0  0  0
   20.0136   63.6012    9.5560 C   0  0  2  0  0  0  0  0  0  0  0  0
   20.0434   62.8533   10.8437 C   0  0  0  0  0  0  0  0  0  0  0  0
   19.5639   61.6534   10.7202 O   0  0  0  0  0  0  0  0  0  0  0  0
   18.7020   64.3037    9.3541 C   0  0  0  0  0  0  0  0  0  0  0  0
   17.6501   63.5272    8.6526 C   0  0  0  0  0  0  0  0  0  0  0  0
   18.2462   62.3736    7.9182 C   0  0  0  0  0  0  0  0  0  0  0  0
   17.8135   62.3619    6.4564 C   0  0  0  0  0  0  0  0  0  0  0  0
   18.8220   61.6713    5.6469 N   0  0  0  0  0  4  0  0  0  0  0  0
   20.5008   63.2834   12.0933 N   0  0  0  0  0  0  0  0  0  0  0  0
   21.8224   63.6282   12.5628 C   0  0  2  0  0  0  0  0  0  0  0  0
   22.8662   62.6957   12.0853 C   0  0  0  0  0  0  0  0  0  0  0  0
   22.6117   62.3617   10.8367 O   0  0  0  0  0  0  0  0  0  0  0  0
   21.7255   63.7326   14.0745 C   0  0  2  0  0  0  0  0  0  0  0  0
   20.8906   62.6186   14.6515 C   0  0  0  0  0  0  0  0  0  0  0  0
   21.0359   65.0479   14.3833 C   0  0  0  0  0  0  0  0  0  0  0  0
   20.2258   61.7441   13.6529 C   0  0  0  0  0  0  0  0  0  0  0  0
   23.9851   62.1099   12.5977 N   0  0  0  0  0  0  0  0  0  0  0  0
   25.3700   62.4178   12.8509 C   0  0  2  0  0  0  0  0  0  0  0  0
   26.0974   61.1165   13.0566 C   0  0  0  0  0  0  0  0  0  0  0  0
   25.6460   60.2131   12.2179 O   0  0  0  0  0  0  0  0  0  0  0  0
   25.7080   63.4816   13.8000 C   0  0  0  0  0  0  0  0  0  0  0  0
   25.5082   63.1909   15.2409 C   0  0  0  0  0  0  0  0  0  0  0  0
   26.1081   63.6712   16.3309 N   0  0  0  0  0  0  0  0  0  0  0  0
   24.5595   62.2693   15.7301 C   0  0  0  0  0  0  0  0  0  0  0  0
   25.5789   63.0998   17.4191 C   0  0  0  0  0  0  0  0  0  0  0  0
   24.6311   62.2419   17.0546 N   0  0  0  0  0  0  0  0  0  0  0  0
   27.7635   60.2550   15.0072 O   0  0  0  0  0  0  0  0  0  0  0  0
  3  1  1  0
  1 23  1  0
  2  4  1  0
 19  2  1  0
  2 27  1  0
 16  3  1  0
  3 26  2  0
  4  6  1  0
 44  5  1  0
  6 16  1  6
  6 45  1  0
  8  7  1  0
  7 12  2  0
  7 44  1  0
  9  8  2  0
  9 10  1  0
 35  9  1  0
 10 13  2  0
 14 11  1  0
 11 27  2  0
 13 12  1  0
 13 14  1  0
 14 19  2  0
 45 15  2  0
 23 17  1  0
 17 24  1  0
 17 25  2  0
 44 18  2  0
 43 20  2  0
 41 21  2  0
 39 22  2  0
 28 33  1  0
 28 36  1  0
 37 28  1  0
 38 29  1  0
 29111  1  0
119 29  1  0
 30 39  1  0
 40 30  1  0
 31 41  1  0
 42 31  1  0
 43 32  1  0
 33 34  2  0
 35 34  1  0
 36 35  2  0
 38 37  1  0
 38 39  1  1
 38119  1  0
 41 40  1  0
 42 43  1  0
 45 46  1  0
 46 47  1  0
 47 48  1  0
 47 50  1  6
 48 49  2  0
 48 57  1  0
 50 51  1  0
 51 52  1  0
 52 53  1  0
 53 54  1  0
 54 55  2  0
 54 56  1  0
 57 58  1  0
 58 59  1  0
 58 61  1  1
 59 60  2  0
 59 65  1  0
 61 62  1  0
 62 63  1  1
 62 64  1  0
 65 66  1  0
 66 67  1  0
 66 69  1  6
 67 68  2  0
 67 77  1  0
 69 70  1  0
 70 71  2  0
 70 72  1  0
 71 73  1  0
 72 74  2  0
 73 75  2  0
 74 75  1  0
 75 76  1  0
 77 78  1  0
 78 79  1  0
 79 80  2  0
 79 81  1  0
 81 82  1  0
 82 83  1  0
 82 85  1  1
 83 84  2  0
 83 92  1  0
 85 86  1  0
 86 87  2  0
 86 88  1  0
 87 89  1  0
 88 90  2  0
 89 91  2  0
 90 91  1  0
 92 93  1  0
 93 94  1  0
 93 96  1  6
 94 95  2  0
 94101  1  0
 96 97  1  0
 97 98  1  0
 98 99  1  0
 99100  1  0
102101  1  1
102103  1  0
102105  1  0
103104  2  0
103109  1  0
105106  1  0
105107  1  6
106108  1  0
109110  1  0
110111  1  0
110113  1  1
111112  2  0
113114  1  0
114115  1  0
114116  2  0
115117  2  0
116118  1  0
117118  1  0
M  CHG  3   5  -1  55   1 100   1
M  END
$$$$
