
     RDKit          3D

119126  0  0  0  0  0  0  0  0999 V2000
   18.3213   38.3851    1.0653 C   0  0  0  0  0  0  0  0  0  0  0  0
   19.5100   39.1740    4.2507 N   0  0  0  0  0  0  0  0  0  0  0  0
   17.3921   37.5606    1.8829 C   0  0  0  0  0  0  0  0  0  0  0  0
   18.3291   39.7317    3.5606 C   0  0  0  0  0  0  0  0  0  0  0  0
   22.5159   33.9719    7.6721 O   0  0  0  0  0  1  0  0  0  0  0  0
   17.1083   38.9891    3.9560 C   0  0  2  0  0  0  0  0  0  0  0  0
   23.2960   36.2887    7.5469 C   0  0  0  0  0  0  0  0  0  0  0  0
   23.9485   37.1733    8.3442 C   0  0  0  0  0  0  0  0  0  0  0  0
   23.7527   38.5879    8.3318 C   0  0  0  0  0  0  0  0  0  0  0  0
   22.8350   39.0944    7.4470 C   0  0  0  0  0  0  0  0  0  0  0  0
   21.3077   38.0105    4.2740 N   0  0  0  0  0  0  0  0  0  0  0  0
   22.3902   36.8588    6.6843 C   0  0  0  0  0  0  0  0  0  0  0  0
   22.1350   38.2533    6.6083 C   0  0  0  0  0  0  0  0  0  0  0  0
   21.1120   38.5543    5.5604 C   0  0  0  0  0  0  0  0  0  0  0  0
   14.9585   38.8229    4.7464 O   0  0  0  0  0  0  0  0  0  0  0  0
   16.6522   37.9887    2.9851 N   0  0  0  0  0  0  0  0  0  0  0  0
   20.6797   38.9175    0.7154 C   0  0  0  0  0  0  0  0  0  0  0  0
   24.7293   34.4543    7.6035 O   0  0  0  0  0  0  0  0  0  0  0  0
   19.9519   39.2874    5.4949 C   0  0  0  0  0  0  0  0  0  0  0  0
   28.9411   48.0435   12.8081 O   0  0  0  0  0  0  0  0  0  0  0  0
   30.4061   43.8084   14.2978 O   0  0  0  0  0  0  0  0  0  0  0  0
   27.9816   41.9513   14.6649 O   0  0  0  0  0  0  0  0  0  0  0  0
   19.6572   37.9542    1.0118 N   0  0  0  0  0  0  0  0  0  0  0  0
   20.3617   40.1770   -0.0017 C   0  0  0  0  0  0  0  0  0  0  0  0
   21.8743   38.7272    1.0567 O   0  0  0  0  0  0  0  0  0  0  0  0
   17.2952   36.3553    1.5076 O   0  0  0  0  0  0  0  0  0  0  0  0
   20.3545   38.3903    3.5244 N   0  0  0  0  0  0  0  0  0  0  0  0
   25.9547   40.4975   10.5947 N   0  0  0  0  0  0  0  0  0  0  0  0
   25.5940   41.0667   13.2022 N   0  0  0  0  0  0  0  0  0  0  0  0
   29.3036   41.9544   12.7896 N   0  0  0  0  0  0  0  0  0  0  0  0
   29.6244   45.5835   13.0776 N   0  0  0  0  0  0  0  0  0  0  0  0
   30.4605   48.9604   14.3139 N   0  0  0  0  0  0  0  0  0  0  0  0
   25.3969   39.5359   11.3354 N   0  0  0  0  0  0  0  0  0  0  0  0
   24.6080   38.7954   10.6912 N   0  0  0  0  0  0  0  0  0  0  0  0
   24.6007   39.2767    9.3635 C   0  0  0  0  0  0  0  0  0  0  0  0
   25.4616   40.3417    9.3562 C   0  0  0  0  0  0  0  0  0  0  0  0
   26.8933   41.4290   11.1633 C   0  0  0  0  0  0  0  0  0  0  0  0
   26.8682   41.2767   12.7128 C   0  0  1  0  0  0  0  0  0  0  0  0
   28.0600   41.7393   13.4277 C   0  0  0  0  0  0  0  0  0  0  0  0
   29.4813   43.2533   12.1249 C   0  0  0  0  0  0  0  0  0  0  0  0
   29.8667   44.1981   13.2281 C   0  0  0  0  0  0  0  0  0  0  0  0
   30.0394   46.4698   14.1585 C   0  0  0  0  0  0  0  0  0  0  0  0
   29.7937   47.8580   13.7361 C   0  0  0  0  0  0  0  0  0  0  0  0
   23.5475   34.8707    7.6077 C   0  0  0  0  0  0  0  0  0  0  0  0
   15.9817   39.6785    4.5524 C   0  0  0  0  0  0  0  0  0  0  0  0
   15.6267   40.9405    4.9828 N   0  0  0  0  0  0  0  0  0  0  0  0
   16.0714   42.2675    4.6943 C   0  0  2  0  0  0  0  0  0  0  0  0
   15.6070   43.3038    5.6884 C   0  0  0  0  0  0  0  0  0  0  0  0
   16.2539   44.4191    5.4926 O   0  0  0  0  0  0  0  0  0  0  0  0
   15.9942   42.7475    3.3055 C   0  0  0  0  0  0  0  0  0  0  0  0
   16.5463   41.9235    2.2094 C   0  0  0  0  0  0  0  0  0  0  0  0
   16.3637   40.4489    2.3170 C   0  0  0  0  0  0  0  0  0  0  0  0
   14.9713   40.1951    2.7256 N   0  0  0  0  0  0  0  0  0  0  0  0
   14.5219   38.8308    2.8783 C   0  0  0  0  0  0  0  0  0  0  0  0
   13.4001   38.6162    3.5010 N   0  0  0  0  0  4  0  0  0  0  0  0
   15.2693   37.7471    2.3619 N   0  0  0  0  0  0  0  0  0  0  0  0
   14.6799   43.2570    6.7013 N   0  0  0  0  0  0  0  0  0  0  0  0
   13.2414   43.3117    6.7448 C   0  0  2  0  0  0  0  0  0  0  0  0
   12.6057   42.3157    7.6228 C   0  0  0  0  0  0  0  0  0  0  0  0
   12.5676   41.1076    7.1699 O   0  0  0  0  0  0  0  0  0  0  0  0
   12.5822   43.3384    5.3806 C   0  0  0  0  0  0  0  0  0  0  0  0
   13.7157   43.4319    4.3445 C   0  0  1  0  0  0  0  0  0  0  0  0
   14.7157   44.4870    4.7438 C   0  0  0  0  0  0  0  0  0  0  0  0
   14.4768   42.1173    4.2896 C   0  0  0  0  0  0  0  0  0  0  0  0
   12.0352   42.4954    8.8809 N   0  0  0  0  0  0  0  0  0  0  0  0
   12.5311   43.1626   10.0372 C   0  0  2  0  0  0  0  0  0  0  0  0
   12.8610   42.1828   11.1082 C   0  0  0  0  0  0  0  0  0  0  0  0
   12.5765   40.9535   10.9288 O   0  0  0  0  0  0  0  0  0  0  0  0
   11.5152   44.2018   10.5544 C   0  0  0  0  0  0  0  0  0  0  0  0
   10.6145   43.5846   11.5448 C   0  0  0  0  0  0  0  0  0  0  0  0
    9.9807   42.3954   11.2811 C   0  0  0  0  0  0  0  0  0  0  0  0
   10.3765   44.1540   12.7700 C   0  0  0  0  0  0  0  0  0  0  0  0
    9.1412   41.7734   12.1745 C   0  0  0  0  0  0  0  0  0  0  0  0
    9.5403   43.5583   13.6933 C   0  0  0  0  0  0  0  0  0  0  0  0
    8.9290   42.3833   13.4016 C   0  0  0  0  0  0  0  0  0  0  0  0
    8.0703   41.7526   14.3290 O   0  0  0  0  0  0  0  0  0  0  0  0
   13.4771   42.5220   12.3349 N   0  0  0  0  0  0  0  0  0  0  0  0
   14.5541   43.4798   12.4873 C   0  0  0  0  0  0  0  0  0  0  0  0
   14.9857   43.5745   13.9080 C   0  0  0  0  0  0  0  0  0  0  0  0
   15.2589   42.5067   14.5128 O   0  0  0  0  0  0  0  0  0  0  0  0
   15.1047   44.8125   14.6192 N   0  0  0  0  0  0  0  0  0  0  0  0
   15.6283   46.0040   14.0614 C   0  0  2  0  0  0  0  0  0  0  0  0
   17.0585   46.2960   14.2649 C   0  0  0  0  0  0  0  0  0  0  0  0
   17.3442   47.4827   13.7883 O   0  0  0  0  0  0  0  0  0  0  0  0
   14.7616   47.2294   14.1880 C   0  0  0  0  0  0  0  0  0  0  0  0
   13.6683   47.1532   15.1452 C   0  0  0  0  0  0  0  0  0  0  0  0
   12.8482   48.2766   15.2600 C   0  0  0  0  0  0  0  0  0  0  0  0
   13.4387   46.0394   15.9403 C   0  0  0  0  0  0  0  0  0  0  0  0
   11.8190   48.2838   16.1533 C   0  0  0  0  0  0  0  0  0  0  0  0
   12.4042   46.0343   16.8467 C   0  0  0  0  0  0  0  0  0  0  0  0
   11.6181   47.1589   16.9302 C   0  0  0  0  0  0  0  0  0  0  0  0
   18.1024   45.5951   14.8265 N   0  0  0  0  0  0  0  0  0  0  0  0
   18.5190   45.3346   16.1847 C   0  0  2  0  0  0  0  0  0  0  0  0
   18.8687   43.9021   16.3949 C   0  0  0  0  0  0  0  0  0  0  0  0
   18.0501   43.1061   15.7775 O   0  0  0  0  0  0  0  0  0  0  0  0
   17.5195   45.8146   17.1972 C   0  0  0  0  0  0  0  0  0  0  0  0
   16.3428   44.9375   17.4154 C   0  0  0  0  0  0  0  0  0  0  0  0
   16.3349   43.8113   16.4370 C   0  0  0  0  0  0  0  0  0  0  0  0
   17.7376   43.5158   15.9182 C   0  0  0  0  0  0  0  0  0  0  0  0
   18.7005   44.4237   16.5492 N   0  0  0  0  0  4  0  0  0  0  0  0
   19.9177   43.3599   17.1442 N   0  0  0  0  0  0  0  0  0  0  0  0
   21.3499   43.4138   16.9660 C   0  0  2  0  0  0  0  0  0  0  0  0
   21.7639   43.2290   15.5584 C   0  0  0  0  0  0  0  0  0  0  0  0
   20.9175   43.8602   14.7705 O   0  0  0  0  0  0  0  0  0  0  0  0
   21.9391   42.3963   17.9267 C   0  0  2  0  0  0  0  0  0  0  0  0
   21.9428   41.0125   17.3297 C   0  0  0  0  0  0  0  0  0  0  0  0
   21.0472   42.3787   19.1535 C   0  0  0  0  0  0  0  0  0  0  0  0
   21.0791   40.8368   16.1351 C   0  0  0  0  0  0  0  0  0  0  0  0
   22.7647   42.5861   14.8932 N   0  0  0  0  0  0  0  0  0  0  0  0
   24.1485   42.7762   14.5381 C   0  0  2  0  0  0  0  0  0  0  0  0
   24.4721   41.8128   13.4281 C   0  0  0  0  0  0  0  0  0  0  0  0
   23.4621   41.7354   12.5930 O   0  0  0  0  0  0  0  0  0  0  0  0
   25.1558   42.8727   15.5977 C   0  0  0  0  0  0  0  0  0  0  0  0
   26.5513   43.1535   15.1804 C   0  0  0  0  0  0  0  0  0  0  0  0
   27.1934   44.3012   14.9582 N   0  0  0  0  0  0  0  0  0  0  0  0
   27.5105   42.1511   14.9280 C   0  0  0  0  0  0  0  0  0  0  0  0
   28.4557   44.0427   14.5968 C   0  0  0  0  0  0  0  0  0  0  0  0
   28.6525   42.7282   14.5776 N   0  0  0  0  0  0  0  0  0  0  0  0
   26.4693   40.0154   13.1070 O   0  0  0  0  0  0  0  0  0  0  0  0
  3  1  1  0
  1 23  1  0
  2  4  1  0
 19  2  1  0
  2 27  1  0
 16  3  1  0
  3 26  2  0
  4  6  1  0
 44  5  1  0
  6 16  1  6
  6 45  1  0
  8  7  1  0
  7 12  2  0
  7 44  1  0
  9  8  2  0
  9 10  1  0
 35  9  1  0
 10 13  2  0
 14 11  1  0
 11 27  2  0
 13 12  1  0
 13 14  1  0
 14 19  2  0
 45 15  2  0
 23 17  1  0
 17 24  1  0
 17 25  2  0
 44 18  2  0
 43 20  2  0
 41 21  2  0
 39 22  2  0
 28 33  1  0
 28 36  1  0
 37 28  1  0
 38 29  1  0
 29111  1  0
119 29  1  0
 30 39  1  0
 40 30  1  0
 31 41  1  0
 42 31  1  0
 43 32  1  0
 33 34  2  0
 35 34  1  0
 36 35  2  0
 38 37  1  0
 38 39  1  1
 38119  1  0
 41 40  1  0
 42 43  1  0
 45 46  1  0
 46 47  1  0
 47 48  1  0
 47 50  1  6
 48 49  2  0
 48 57  1  0
 50 51  1  0
 51 52  1  0
 52 53  1  0
 53 54  1  0
 54 55  2  0
 54 56  1  0
 57 58  1  0
 58 59  1  0
 58 61  1  6
 59 60  2  0
 59 65  1  0
 61 62  1  0
 62 63  1  1
 62 64  1  0
 65 66  1  0
 66 67  1  0
 66 69  1  1
 67 68  2  0
 67 77  1  0
 69 70  1  0
 70 71  2  0
 70 72  1  0
 71 73  1  0
 72 74  2  0
 73 75  2  0
 74 75  1  0
 75 76  1  0
 77 78  1  0
 78 79  1  0
 79 80  2  0
 79 81  1  0
 81 82  1  0
 82 83  1  0
 82 85  1  1
 83 84  2  0
 83 92  1  0
 85 86  1  0
 86 87  2  0
 86 88  1  0
 87 89  1  0
 88 90  2  0
 89 91  2  0
 90 91  1  0
 92 93  1  0
 93 94  1  0
 93 96  1  1
 94 95  2  0
 94101  1  0
 96 97  1  0
 97 98  1  0
 98 99  1  0
 99100  1  0
102101  1  6
102103  1  0
102105  1  0
103104  2  0
103109  1  0
105106  1  0
105107  1  1
106108  1  0
109110  1  0
110111  1  0
110113  1  1
111112  2  0
113114  1  0
114115  1  0
114116  2  0
115117  2  0
116118  1  0
117118  1  0
M  CHG  3   5  -1  55   1 100   1
M  END
$$$$
