
     RDKit          3D

119126  0  0  0  0  0  0  0  0999 V2000
   27.2439   42.4209   15.9438 C   0  0  0  0  0  0  0  0  0  0  0  0
   25.4246   40.0995   11.5734 N   0  0  0  0  0  0  0  0  0  0  0  0
   27.8880   42.3397   14.6057 C   0  0  0  0  0  0  0  0  0  0  0  0
   25.6239   40.3991   13.0060 C   0  0  0  0  0  0  0  0  0  0  0  0
   26.8963   40.6500    4.9399 O   0  0  0  0  0  1  0  0  0  0  0  0
   25.8379   41.8535   13.1987 C   0  0  2  0  0  0  0  0  0  0  0  0
   24.6699   40.1629    5.8331 C   0  0  0  0  0  0  0  0  0  0  0  0
   23.4714   39.5954    5.5409 C   0  0  0  0  0  0  0  0  0  0  0  0
   22.5715   39.0394    6.5004 C   0  0  0  0  0  0  0  0  0  0  0  0
   22.9446   39.0807    7.8197 C   0  0  0  0  0  0  0  0  0  0  0  0
   26.1078   39.3399    9.6912 N   0  0  0  0  0  0  0  0  0  0  0  0
   24.9847   40.1740    7.1712 C   0  0  0  0  0  0  0  0  0  0  0  0
   24.1479   39.6437    8.1883 C   0  0  0  0  0  0  0  0  0  0  0  0
   24.7813   39.7923    9.5344 C   0  0  0  0  0  0  0  0  0  0  0  0
   25.4048   43.8942   14.1588 O   0  0  0  0  0  0  0  0  0  0  0  0
   27.2380   42.2538   13.3746 N   0  0  0  0  0  0  0  0  0  0  0  0
   26.4547   43.8959   17.7241 C   0  0  0  0  0  0  0  0  0  0  0  0
   25.0286   41.2247    3.7919 O   0  0  0  0  0  0  0  0  0  0  0  0
   24.3904   40.2687   10.7624 C   0  0  0  0  0  0  0  0  0  0  0  0
   13.7165   34.7533    8.0269 O   0  0  0  0  0  0  0  0  0  0  0  0
   15.2427   34.5026    4.8682 O   0  0  0  0  0  0  0  0  0  0  0  0
   17.0434   35.7560    2.2510 O   0  0  0  0  0  0  0  0  0  0  0  0
   26.7906   43.6889   16.3436 N   0  0  0  0  0  0  0  0  0  0  0  0
   26.5406   42.7888   18.7083 C   0  0  0  0  0  0  0  0  0  0  0  0
   26.0816   45.0204   18.1434 O   0  0  0  0  0  0  0  0  0  0  0  0
   29.1537   42.3498   14.6337 O   0  0  0  0  0  0  0  0  0  0  0  0
   26.4608   39.5305   10.8970 N   0  0  0  0  0  0  0  0  0  0  0  0
   19.5485   37.4633    5.0885 N   0  0  0  0  0  0  0  0  0  0  0  0
   17.2034   38.6159    4.4363 N   0  0  0  0  0  0  0  0  0  0  0  0
   15.1149   36.6101    3.1544 N   0  0  0  0  0  0  0  0  0  0  0  0
   15.5251   35.9246    6.6428 N   0  0  0  0  0  0  0  0  0  0  0  0
   14.8548   32.7668    8.4452 N   0  0  0  0  0  0  0  0  0  0  0  0
   19.6220   38.6842    4.5516 N   0  0  0  0  0  0  0  0  0  0  0  0
   20.6145   39.3510    4.9464 N   0  0  0  0  0  0  0  0  0  0  0  0
   21.3153   38.5269    5.8544 C   0  0  0  0  0  0  0  0  0  0  0  0
   20.6073   37.3558    5.9062 C   0  0  0  0  0  0  0  0  0  0  0  0
   18.4857   36.5569    4.7409 C   0  0  0  0  0  0  0  0  0  0  0  0
   17.4040   37.3421    3.9420 C   0  0  1  0  0  0  0  0  0  0  0  0
   16.5257   36.5428    3.0846 C   0  0  0  0  0  0  0  0  0  0  0  0
   14.5344   36.7922    4.4925 C   0  0  0  0  0  0  0  0  0  0  0  0
   15.1094   35.6731    5.3143 C   0  0  0  0  0  0  0  0  0  0  0  0
   15.9877   34.7936    7.4383 C   0  0  0  0  0  0  0  0  0  0  0  0
   14.8091   34.1000    7.9822 C   0  0  0  0  0  0  0  0  0  0  0  0
   25.5335   40.7007    4.8120 C   0  0  0  0  0  0  0  0  0  0  0  0
   24.9699   42.6217   14.0685 C   0  0  0  0  0  0  0  0  0  0  0  0
   23.8357   42.4573   14.8371 N   0  0  0  0  0  0  0  0  0  0  0  0
   23.1845   41.3427   15.4499 C   0  0  2  0  0  0  0  0  0  0  0  0
   21.7700   41.6228   15.8952 C   0  0  0  0  0  0  0  0  0  0  0  0
   21.1793   40.5027   16.2069 O   0  0  0  0  0  0  0  0  0  0  0  0
   23.9348   40.5442   16.4320 C   0  0  0  0  0  0  0  0  0  0  0  0
   25.4125   40.5307   16.3960 C   0  0  0  0  0  0  0  0  0  0  0  0
   26.0921   41.8291   16.1284 C   0  0  0  0  0  0  0  0  0  0  0  0
   26.5665   41.8114   14.7339 N   0  0  0  0  0  0  0  0  0  0  0  0
   26.9239   43.0581   14.0979 C   0  0  0  0  0  0  0  0  0  0  0  0
   26.9786   44.1316   14.8305 N   0  0  0  0  0  4  0  0  0  0  0  0
   27.2168   43.1224   12.7160 N   0  0  0  0  0  0  0  0  0  0  0  0
   21.0550   42.7905   16.0085 N   0  0  0  0  0  0  0  0  0  0  0  0
   21.0278   43.8577   16.9752 C   0  0  2  0  0  0  0  0  0  0  0  0
   21.0211   45.2151   16.4055 C   0  0  0  0  0  0  0  0  0  0  0  0
   22.1488   45.6366   15.9399 O   0  0  0  0  0  0  0  0  0  0  0  0
   22.0692   43.7284   18.0684 C   0  0  0  0  0  0  0  0  0  0  0  0
   22.4276   42.2351   18.1620 C   0  0  1  0  0  0  0  0  0  0  0  0
   21.2038   41.4131   18.4773 C   0  0  0  0  0  0  0  0  0  0  0  0
   22.9429   41.7412   16.8200 C   0  0  0  0  0  0  0  0  0  0  0  0
   19.9625   46.1143   16.2988 N   0  0  0  0  0  0  0  0  0  0  0  0
   18.6354   45.9311   15.8156 C   0  0  2  0  0  0  0  0  0  0  0  0
   18.4434   46.6451   14.5237 C   0  0  0  0  0  0  0  0  0  0  0  0
   19.3834   47.3832   14.0810 O   0  0  0  0  0  0  0  0  0  0  0  0
   17.5984   46.4090   16.8526 C   0  0  0  0  0  0  0  0  0  0  0  0
   16.4259   46.9872   16.1714 C   0  0  0  0  0  0  0  0  0  0  0  0
   15.3802   47.5157   16.8876 C   0  0  0  0  0  0  0  0  0  0  0  0
   16.3268   47.0370   14.8040 C   0  0  0  0  0  0  0  0  0  0  0  0
   14.2707   48.0763   16.3008 C   0  0  0  0  0  0  0  0  0  0  0  0
   15.2284   47.5932   14.1792 C   0  0  0  0  0  0  0  0  0  0  0  0
   14.2119   48.1066   14.9157 C   0  0  0  0  0  0  0  0  0  0  0  0
   13.0779   48.6824   14.3010 O   0  0  0  0  0  0  0  0  0  0  0  0
   17.2715   46.5651   13.7366 N   0  0  0  0  0  0  0  0  0  0  0  0
   16.5048   45.3566   13.5076 C   0  0  0  0  0  0  0  0  0  0  0  0
   15.3485   45.6215   12.6097 C   0  0  0  0  0  0  0  0  0  0  0  0
   15.5703   46.2132   11.5229 O   0  0  0  0  0  0  0  0  0  0  0  0
   14.0023   45.2401   12.9179 N   0  0  0  0  0  0  0  0  0  0  0  0
   13.6417   44.0131   13.5256 C   0  0  2  0  0  0  0  0  0  0  0  0
   13.2566   42.8915   12.6505 C   0  0  0  0  0  0  0  0  0  0  0  0
   12.8441   41.8808   13.3752 O   0  0  0  0  0  0  0  0  0  0  0  0
   12.7775   44.1135   14.7552 C   0  0  0  0  0  0  0  0  0  0  0  0
   12.9837   43.0975   15.7764 C   0  0  0  0  0  0  0  0  0  0  0  0
   11.8919   42.2881   16.0933 C   0  0  0  0  0  0  0  0  0  0  0  0
   14.1902   42.9307   16.4410 C   0  0  0  0  0  0  0  0  0  0  0  0
   12.0067   41.3310   17.0568 C   0  0  0  0  0  0  0  0  0  0  0  0
   14.3190   41.9694   17.4163 C   0  0  0  0  0  0  0  0  0  0  0  0
   13.2217   41.1914   17.6998 C   0  0  0  0  0  0  0  0  0  0  0  0
   13.2519   42.7073   11.2857 N   0  0  0  0  0  0  0  0  0  0  0  0
   12.3733   43.1306   10.2203 C   0  0  2  0  0  0  0  0  0  0  0  0
   13.1296   43.6687    9.0554 C   0  0  0  0  0  0  0  0  0  0  0  0
   14.1385   44.3969    9.4251 O   0  0  0  0  0  0  0  0  0  0  0  0
   11.3199   44.0926   10.6885 C   0  0  0  0  0  0  0  0  0  0  0  0
   11.7327   45.0411   11.7523 C   0  0  0  0  0  0  0  0  0  0  0  0
   13.1974   45.3141   11.6774 C   0  0  0  0  0  0  0  0  0  0  0  0
   14.0125   44.0684   12.0060 C   0  0  0  0  0  0  0  0  0  0  0  0
   15.4281   44.4245   12.1424 N   0  0  0  0  0  4  0  0  0  0  0  0
   12.8791   43.4864    7.6916 N   0  0  0  0  0  0  0  0  0  0  0  0
   12.9388   42.3102    6.8556 C   0  0  2  0  0  0  0  0  0  0  0  0
   14.1193   41.4638    7.1334 C   0  0  0  0  0  0  0  0  0  0  0  0
   14.3358   41.4338    8.4326 O   0  0  0  0  0  0  0  0  0  0  0  0
   12.8479   42.8000    5.4213 C   0  0  2  0  0  0  0  0  0  0  0  0
   14.0485   42.3737    4.6163 C   0  0  0  0  0  0  0  0  0  0  0  0
   12.8278   44.3159    5.4723 C   0  0  0  0  0  0  0  0  0  0  0  0
   15.3115   42.2427    5.3854 C   0  0  0  0  0  0  0  0  0  0  0  0
   15.0133   40.7359    6.4065 N   0  0  0  0  0  0  0  0  0  0  0  0
   15.1212   39.4500    5.7649 C   0  0  2  0  0  0  0  0  0  0  0  0
   16.5810   39.1875    5.5098 C   0  0  0  0  0  0  0  0  0  0  0  0
   17.2965   39.6076    6.5271 O   0  0  0  0  0  0  0  0  0  0  0  0
   14.2223   39.1226    4.6552 C   0  0  0  0  0  0  0  0  0  0  0  0
   14.0539   40.1478    3.5963 C   0  0  0  0  0  0  0  0  0  0  0  0
   13.5783   40.0645    2.3531 N   0  0  0  0  0  0  0  0  0  0  0  0
   14.4065   41.5039    3.7554 C   0  0  0  0  0  0  0  0  0  0  0  0
   13.6258   41.2709    1.7761 C   0  0  0  0  0  0  0  0  0  0  0  0
   14.1318   42.1535    2.6317 N   0  0  0  0  0  0  0  0  0  0  0  0
   17.9308   38.4373    3.2876 O   0  0  0  0  0  0  0  0  0  0  0  0
  3  1  1  0
  1 23  1  0
  2  4  1  0
 19  2  1  0
  2 27  1  0
 16  3  1  0
  3 26  2  0
  4  6  1  0
 44  5  1  0
  6 16  1  1
  6 45  1  0
  8  7  1  0
  7 12  2  0
  7 44  1  0
  9  8  2  0
  9 10  1  0
 35  9  1  0
 10 13  2  0
 14 11  1  0
 11 27  2  0
 13 12  1  0
 13 14  1  0
 14 19  2  0
 45 15  2  0
 23 17  1  0
 17 24  1  0
 17 25  2  0
 44 18  2  0
 43 20  2  0
 41 21  2  0
 39 22  2  0
 28 33  1  0
 28 36  1  0
 37 28  1  0
 38 29  1  0
 29111  1  0
119 29  1  0
 30 39  1  0
 40 30  1  0
 31 41  1  0
 42 31  1  0
 43 32  1  0
 33 34  2  0
 35 34  1  0
 36 35  2  0
 38 37  1  0
 38 39  1  6
 38119  1  0
 41 40  1  0
 42 43  1  0
 45 46  1  0
 46 47  1  0
 47 48  1  0
 47 50  1  1
 48 49  2  0
 48 57  1  0
 50 51  1  0
 51 52  1  0
 52 53  1  0
 53 54  1  0
 54 55  2  0
 54 56  1  0
 57 58  1  0
 58 59  1  0
 58 61  1  1
 59 60  2  0
 59 65  1  0
 61 62  1  0
 62 63  1  6
 62 64  1  0
 65 66  1  0
 66 67  1  0
 66 69  1  1
 67 68  2  0
 67 77  1  0
 69 70  1  0
 70 71  2  0
 70 72  1  0
 71 73  1  0
 72 74  2  0
 73 75  2  0
 74 75  1  0
 75 76  1  0
 77 78  1  0
 78 79  1  0
 79 80  2  0
 79 81  1  0
 81 82  1  0
 82 83  1  0
 82 85  1  1
 83 84  2  0
 83 92  1  0
 85 86  1  0
 86 87  2  0
 86 88  1  0
 87 89  1  0
 88 90  2  0
 89 91  2  0
 90 91  1  0
 92 93  1  0
 93 94  1  0
 93 96  1  1
 94 95  2  0
 94101  1  0
 96 97  1  0
 97 98  1  0
 98 99  1  0
 99100  1  0
102101  1  1
102103  1  0
102105  1  0
103104  2  0
103109  1  0
105106  1  0
105107  1  1
106108  1  0
109110  1  0
110111  1  0
110113  1  6
111112  2  0
113114  1  0
114115  1  0
114116  2  0
115117  2  0
116118  1  0
117118  1  0
M  CHG  3   5  -1  55   1 100   1
M  END
$$$$
