
     RDKit          3D

119126  0  0  0  0  0  0  0  0999 V2000
   28.6478   40.0881   13.3079 C   0  0  0  0  0  0  0  0  0  0  0  0
   25.7462   40.8803   10.3915 N   0  0  0  0  0  0  0  0  0  0  0  0
   28.8009   41.5104   12.9012 C   0  0  0  0  0  0  0  0  0  0  0  0
   26.1223   40.7030   11.8089 C   0  0  0  0  0  0  0  0  0  0  0  0
   24.5759   43.9133    2.9694 O   0  0  0  0  0  1  0  0  0  0  0  0
   26.3621   42.0216   12.4426 C   0  0  2  0  0  0  0  0  0  0  0  0
   24.2858   42.7865    5.1230 C   0  0  0  0  0  0  0  0  0  0  0  0
   23.0589   42.2999    4.8038 C   0  0  0  0  0  0  0  0  0  0  0  0
   22.2835   41.4267    5.6260 C   0  0  0  0  0  0  0  0  0  0  0  0
   22.8174   41.0490    6.8317 C   0  0  0  0  0  0  0  0  0  0  0  0
   26.1889   40.8042    8.2976 N   0  0  0  0  0  0  0  0  0  0  0  0
   24.7640   42.3718    6.3432 C   0  0  0  0  0  0  0  0  0  0  0  0
   24.0585   41.5067    7.2204 C   0  0  0  0  0  0  0  0  0  0  0  0
   24.8543   41.2315    8.4559 C   0  0  0  0  0  0  0  0  0  0  0  0
   26.0565   43.6185   14.0645 O   0  0  0  0  0  0  0  0  0  0  0  0
   27.7743   42.3961   12.5740 N   0  0  0  0  0  0  0  0  0  0  0  0
   29.4606   37.8264   12.8700 C   0  0  0  0  0  0  0  0  0  0  0  0
   26.0755   44.1974    4.6448 O   0  0  0  0  0  0  0  0  0  0  0  0
   24.6198   41.2653    9.8092 C   0  0  0  0  0  0  0  0  0  0  0  0
   12.3810   36.4853    1.2337 O   0  0  0  0  0  0  0  0  0  0  0  0
   15.1567   39.7584   -0.7203 O   0  0  0  0  0  0  0  0  0  0  0  0
   15.2270   40.7724    1.5992 O   0  0  0  0  0  0  0  0  0  0  0  0
   29.0823   39.1233   12.3840 N   0  0  0  0  0  0  0  0  0  0  0  0
   29.7174   37.5931   14.3127 C   0  0  0  0  0  0  0  0  0  0  0  0
   29.5825   36.8476   12.0910 O   0  0  0  0  0  0  0  0  0  0  0  0
   29.9997   41.9153   12.8580 O   0  0  0  0  0  0  0  0  0  0  0  0
   26.6892   40.6038    9.4484 N   0  0  0  0  0  0  0  0  0  0  0  0
   19.1049   40.2833    4.1411 N   0  0  0  0  0  0  0  0  0  0  0  0
   16.6999   41.4946    4.1855 N   0  0  0  0  0  0  0  0  0  0  0  0
   15.5840   38.5742    2.1514 N   0  0  0  0  0  0  0  0  0  0  0  0
   13.5642   38.1798   -0.2484 N   0  0  0  0  0  0  0  0  0  0  0  0
   12.9093   34.5421    0.0670 N   0  0  0  0  0  0  0  0  0  0  0  0
   19.1143   41.6145    4.0309 N   0  0  0  0  0  0  0  0  0  0  0  0
   20.1497   42.1533    4.5032 N   0  0  0  0  0  0  0  0  0  0  0  0
   20.9557   41.1054    5.0002 C   0  0  0  0  0  0  0  0  0  0  0  0
   20.2567   39.9553    4.7470 C   0  0  0  0  0  0  0  0  0  0  0  0
   18.0050   39.4999    3.6425 C   0  0  0  0  0  0  0  0  0  0  0  0
   16.8345   40.4608    3.2798 C   0  0  1  0  0  0  0  0  0  0  0  0
   15.8548   39.9523    2.3170 C   0  0  0  0  0  0  0  0  0  0  0  0
   15.8431   38.0126    0.8180 C   0  0  0  0  0  0  0  0  0  0  0  0
   14.8660   38.7091   -0.0868 C   0  0  0  0  0  0  0  0  0  0  0  0
   13.4365   36.8490   -0.8302 C   0  0  0  0  0  0  0  0  0  0  0  0
   12.8880   35.9480    0.1961 C   0  0  0  0  0  0  0  0  0  0  0  0
   25.0174   43.6611    4.2413 C   0  0  0  0  0  0  0  0  0  0  0  0
   25.6106   42.4296   13.6126 C   0  0  0  0  0  0  0  0  0  0  0  0
   24.5801   41.9796   14.4125 N   0  0  0  0  0  0  0  0  0  0  0  0
   24.0072   40.7018   14.6967 C   0  0  2  0  0  0  0  0  0  0  0  0
   22.6594   40.7664   15.3729 C   0  0  0  0  0  0  0  0  0  0  0  0
   22.1092   39.5841   15.3661 O   0  0  0  0  0  0  0  0  0  0  0  0
   24.8714   39.6558   15.2659 C   0  0  0  0  0  0  0  0  0  0  0  0
   25.5782   39.8974   16.5415 C   0  0  0  0  0  0  0  0  0  0  0  0
   26.9606   40.4455   16.4528 C   0  0  0  0  0  0  0  0  0  0  0  0
   26.9870   41.7245   17.1833 N   0  0  0  0  0  0  0  0  0  0  0  0
   28.2579   42.3629   17.4358 C   0  0  0  0  0  0  0  0  0  0  0  0
   29.0246   41.8672   18.3625 N   0  0  0  0  0  4  0  0  0  0  0  0
   28.6736   43.4941   16.6962 N   0  0  0  0  0  0  0  0  0  0  0  0
   21.9669   41.8046   15.9474 N   0  0  0  0  0  0  0  0  0  0  0  0
   22.0623   42.4956   17.2074 C   0  0  2  0  0  0  0  0  0  0  0  0
   21.9884   43.9633   17.1208 C   0  0  0  0  0  0  0  0  0  0  0  0
   23.0507   44.5568   16.6903 O   0  0  0  0  0  0  0  0  0  0  0  0
   23.2310   42.0564   18.0664 C   0  0  0  0  0  0  0  0  0  0  0  0
   24.3638   41.6629   17.1025 C   0  0  1  0  0  0  0  0  0  0  0  0
   23.9891   40.4333   16.3149 C   0  0  0  0  0  0  0  0  0  0  0  0
   24.5883   42.7717   16.0873 C   0  0  0  0  0  0  0  0  0  0  0  0
   20.9269   44.8065   17.4415 N   0  0  0  0  0  0  0  0  0  0  0  0
   19.5498   44.7403   17.0849 C   0  0  2  0  0  0  0  0  0  0  0  0
   19.2009   45.8293   16.1320 C   0  0  0  0  0  0  0  0  0  0  0  0
   20.0805   46.7071   15.8491 O   0  0  0  0  0  0  0  0  0  0  0  0
   18.6505   44.8129   18.3361 C   0  0  0  0  0  0  0  0  0  0  0  0
   18.9431   46.0371   19.1034 C   0  0  0  0  0  0  0  0  0  0  0  0
   19.3479   47.1880   18.4732 C   0  0  0  0  0  0  0  0  0  0  0  0
   18.8157   46.0913   20.4683 C   0  0  0  0  0  0  0  0  0  0  0  0
   19.6216   48.3578   19.1411 C   0  0  0  0  0  0  0  0  0  0  0  0
   19.0808   47.2486   21.1731 C   0  0  0  0  0  0  0  0  0  0  0  0
   19.4792   48.3687   20.5204 C   0  0  0  0  0  0  0  0  0  0  0  0
   19.7553   49.5657   21.2179 O   0  0  0  0  0  0  0  0  0  0  0  0
   17.9401   45.9657   15.5063 N   0  0  0  0  0  0  0  0  0  0  0  0
   17.1480   44.8698   14.9847 C   0  0  0  0  0  0  0  0  0  0  0  0
   15.8899   45.3688   14.3668 C   0  0  0  0  0  0  0  0  0  0  0  0
   15.9768   46.2912   13.5169 O   0  0  0  0  0  0  0  0  0  0  0  0
   14.5914   44.8562   14.6888 N   0  0  0  0  0  0  0  0  0  0  0  0
   14.3059   43.4850   14.8971 C   0  0  2  0  0  0  0  0  0  0  0  0
   13.8126   42.6969   13.7536 C   0  0  0  0  0  0  0  0  0  0  0  0
   13.4906   41.4898   14.1489 O   0  0  0  0  0  0  0  0  0  0  0  0
   13.6012   43.1449   16.1841 C   0  0  0  0  0  0  0  0  0  0  0  0
   13.6554   44.1481   17.2368 C   0  0  0  0  0  0  0  0  0  0  0  0
   14.7941   44.1577   18.0437 C   0  0  0  0  0  0  0  0  0  0  0  0
   12.6290   45.0521   17.4701 C   0  0  0  0  0  0  0  0  0  0  0  0
   14.9021   45.0551   19.0637 C   0  0  0  0  0  0  0  0  0  0  0  0
   12.7249   45.9620   18.4972 C   0  0  0  0  0  0  0  0  0  0  0  0
   13.8619   45.9411   19.2695 C   0  0  0  0  0  0  0  0  0  0  0  0
   13.6383   42.9686   12.4149 N   0  0  0  0  0  0  0  0  0  0  0  0
   12.6354   43.6826   11.6594 C   0  0  2  0  0  0  0  0  0  0  0  0
   13.2427   44.6004   10.6557 C   0  0  0  0  0  0  0  0  0  0  0  0
   14.2915   45.2061   11.1228 O   0  0  0  0  0  0  0  0  0  0  0  0
   11.6505   44.3976   12.5388 C   0  0  0  0  0  0  0  0  0  0  0  0
   12.0991   44.6743   13.9258 C   0  0  0  0  0  0  0  0  0  0  0  0
   13.5622   44.4202   14.0684 C   0  0  0  0  0  0  0  0  0  0  0  0
   13.8347   43.2594   15.0183 C   0  0  0  0  0  0  0  0  0  0  0  0
   15.2528   42.8924   14.9579 N   0  0  0  0  0  4  0  0  0  0  0  0
   12.8246   44.8641    9.3475 N   0  0  0  0  0  0  0  0  0  0  0  0
   12.7773   44.0288    8.1703 C   0  0  2  0  0  0  0  0  0  0  0  0
   13.9810   43.1842    8.0130 C   0  0  0  0  0  0  0  0  0  0  0  0
   14.3569   42.7397    9.1948 O   0  0  0  0  0  0  0  0  0  0  0  0
   12.5105   44.9564    6.9981 C   0  0  2  0  0  0  0  0  0  0  0  0
   12.3501   44.1872    5.7121 C   0  0  0  0  0  0  0  0  0  0  0  0
   13.7238   45.8564    6.8617 C   0  0  0  0  0  0  0  0  0  0  0  0
   12.8213   42.7801    5.7539 C   0  0  0  0  0  0  0  0  0  0  0  0
   14.7762   42.7687    6.9871 N   0  0  0  0  0  0  0  0  0  0  0  0
   14.8006   41.7681    5.9502 C   0  0  2  0  0  0  0  0  0  0  0  0
   16.2168   41.6596    5.4527 C   0  0  0  0  0  0  0  0  0  0  0  0
   17.0540   41.7515    6.4598 O   0  0  0  0  0  0  0  0  0  0  0  0
   13.7702   41.7868    4.9087 C   0  0  0  0  0  0  0  0  0  0  0  0
   12.9486   43.0164    4.7925 C   0  0  0  0  0  0  0  0  0  0  0  0
   12.1038   43.4288    3.8463 N   0  0  0  0  0  0  0  0  0  0  0  0
   12.9323   44.0424    5.7598 C   0  0  0  0  0  0  0  0  0  0  0  0
   11.5951   44.6176    4.1906 C   0  0  0  0  0  0  0  0  0  0  0  0
   12.1000   44.9954    5.3608 N   0  0  0  0  0  0  0  0  0  0  0  0
   17.2789   41.7291    2.9648 O   0  0  0  0  0  0  0  0  0  0  0  0
  3  1  1  0
  1 23  1  0
  2  4  1  0
 19  2  1  0
  2 27  1  0
 16  3  1  0
  3 26  2  0
  4  6  1  0
 44  5  1  0
  6 16  1  1
  6 45  1  0
  8  7  1  0
  7 12  2  0
  7 44  1  0
  9  8  2  0
  9 10  1  0
 35  9  1  0
 10 13  2  0
 14 11  1  0
 11 27  2  0
 13 12  1  0
 13 14  1  0
 14 19  2  0
 45 15  2  0
 23 17  1  0
 17 24  1  0
 17 25  2  0
 44 18  2  0
 43 20  2  0
 41 21  2  0
 39 22  2  0
 28 33  1  0
 28 36  1  0
 37 28  1  0
 38 29  1  0
 29111  1  0
119 29  1  0
 30 39  1  0
 40 30  1  0
 31 41  1  0
 42 31  1  0
 43 32  1  0
 33 34  2  0
 35 34  1  0
 36 35  2  0
 38 37  1  0
 38 39  1  6
 38119  1  0
 41 40  1  0
 42 43  1  0
 45 46  1  0
 46 47  1  0
 47 48  1  0
 47 50  1  1
 48 49  2  0
 48 57  1  0
 50 51  1  0
 51 52  1  0
 52 53  1  0
 53 54  1  0
 54 55  2  0
 54 56  1  0
 57 58  1  0
 58 59  1  0
 58 61  1  6
 59 60  2  0
 59 65  1  0
 61 62  1  0
 62 63  1  6
 62 64  1  0
 65 66  1  0
 66 67  1  0
 66 69  1  1
 67 68  2  0
 67 77  1  0
 69 70  1  0
 70 71  2  0
 70 72  1  0
 71 73  1  0
 72 74  2  0
 73 75  2  0
 74 75  1  0
 75 76  1  0
 77 78  1  0
 78 79  1  0
 79 80  2  0
 79 81  1  0
 81 82  1  0
 82 83  1  0
 82 85  1  1
 83 84  2  0
 83 92  1  0
 85 86  1  0
 86 87  2  0
 86 88  1  0
 87 89  1  0
 88 90  2  0
 89 91  2  0
 90 91  1  0
 92 93  1  0
 93 94  1  0
 93 96  1  1
 94 95  2  0
 94101  1  0
 96 97  1  0
 97 98  1  0
 98 99  1  0
 99100  1  0
102101  1  1
102103  1  0
102105  1  0
103104  2  0
103109  1  0
105106  1  0
105107  1  6
106108  1  0
109110  1  0
110111  1  0
110113  1  6
111112  2  0
113114  1  0
114115  1  0
114116  2  0
115117  2  0
116118  1  0
117118  1  0
M  CHG  3   5  -1  55   1 100   1
M  END
$$$$
