
     RDKit          3D

119126  0  0  0  0  0  0  0  0999 V2000
   26.2702   41.8933   16.6068 C   0  0  0  0  0  0  0  0  0  0  0  0
   24.4587   41.9776   13.9556 N   0  0  0  0  0  0  0  0  0  0  0  0
   25.7670   43.2153   17.0660 C   0  0  0  0  0  0  0  0  0  0  0  0
   23.9018   41.8612   15.3188 C   0  0  0  0  0  0  0  0  0  0  0  0
   27.8656   45.4424    9.3561 O   0  0  0  0  0  1  0  0  0  0  0  0
   23.5485   43.2024   15.8425 C   0  0  2  0  0  0  0  0  0  0  0  0
   26.3367   43.6344    8.7353 C   0  0  0  0  0  0  0  0  0  0  0  0
   25.6308   42.9716    7.7833 C   0  0  0  0  0  0  0  0  0  0  0  0
   24.6206   41.9958    8.0419 C   0  0  0  0  0  0  0  0  0  0  0  0
   24.3399   41.7039    9.3524 C   0  0  0  0  0  0  0  0  0  0  0  0
   26.0994   41.9622   12.5794 N   0  0  0  0  0  0  0  0  0  0  0  0
   26.0079   43.2979   10.0270 C   0  0  0  0  0  0  0  0  0  0  0  0
   25.0175   42.3404   10.3706 C   0  0  0  0  0  0  0  0  0  0  0  0
   24.9113   42.1887   11.8542 C   0  0  0  0  0  0  0  0  0  0  0  0
   22.1303   44.7409   16.7889 O   0  0  0  0  0  0  0  0  0  0  0  0
   24.5272   43.7811   16.7692 N   0  0  0  0  0  0  0  0  0  0  0  0
   27.6494   40.0863   17.5015 C   0  0  0  0  0  0  0  0  0  0  0  0
   27.7618   44.6849    7.2226 O   0  0  0  0  0  0  0  0  0  0  0  0
   23.8929   42.1909   12.7765 C   0  0  0  0  0  0  0  0  0  0  0  0
   27.4697   36.9882    5.9026 O   0  0  0  0  0  0  0  0  0  0  0  0
   22.4624   37.2972    3.5344 O   0  0  0  0  0  0  0  0  0  0  0  0
   20.8999   39.9604    0.8745 O   0  0  0  0  0  0  0  0  0  0  0  0
   27.4958   41.4689   17.1464 N   0  0  0  0  0  0  0  0  0  0  0  0
   26.6117   39.0850   17.1517 C   0  0  0  0  0  0  0  0  0  0  0  0
   28.6678   39.6795   18.1155 O   0  0  0  0  0  0  0  0  0  0  0  0
   26.5783   43.8588   17.7944 O   0  0  0  0  0  0  0  0  0  0  0  0
   25.8059   41.8406   13.8098 N   0  0  0  0  0  0  0  0  0  0  0  0
   23.1826   40.3928    5.0455 N   0  0  0  0  0  0  0  0  0  0  0  0
   21.1389   41.2367    3.5078 N   0  0  0  0  0  0  0  0  0  0  0  0
   22.6702   38.5473    1.2401 N   0  0  0  0  0  0  0  0  0  0  0  0
   24.4274   38.0752    4.4201 N   0  0  0  0  0  0  0  0  0  0  0  0
   25.7571   38.3117    6.7582 N   0  0  0  0  0  0  0  0  0  0  0  0
   23.1049   41.7106    4.8411 N   0  0  0  0  0  0  0  0  0  0  0  0
   23.5613   42.3973    5.7928 N   0  0  0  0  0  0  0  0  0  0  0  0
   24.0053   41.4808    6.7714 C   0  0  0  0  0  0  0  0  0  0  0  0
   23.7470   40.2397    6.2534 C   0  0  0  0  0  0  0  0  0  0  0  0
   22.7201   39.4547    4.0565 C   0  0  0  0  0  0  0  0  0  0  0  0
   21.9190   40.2318    2.9705 C   0  0  1  0  0  0  0  0  0  0  0  0
   21.8039   39.5820    1.6628 C   0  0  0  0  0  0  0  0  0  0  0  0
   23.9395   38.4181    1.9701 C   0  0  0  0  0  0  0  0  0  0  0  0
   23.5502   37.8970    3.3248 C   0  0  0  0  0  0  0  0  0  0  0  0
   25.6552   37.2892    4.4455 C   0  0  0  0  0  0  0  0  0  0  0  0
   26.3278   37.5265    5.7328 C   0  0  0  0  0  0  0  0  0  0  0  0
   27.3492   44.6050    8.4031 C   0  0  0  0  0  0  0  0  0  0  0  0
   22.1962   43.4981   16.2715 C   0  0  0  0  0  0  0  0  0  0  0  0
   20.9519   42.9033   16.3183 N   0  0  0  0  0  0  0  0  0  0  0  0
   20.4767   41.5557   16.3128 C   0  0  2  0  0  0  0  0  0  0  0  0
   19.0017   41.4227   16.0218 C   0  0  0  0  0  0  0  0  0  0  0  0
   18.7120   40.1722   15.7916 O   0  0  0  0  0  0  0  0  0  0  0  0
   20.9217   40.6498   17.3835 C   0  0  0  0  0  0  0  0  0  0  0  0
   22.2145   40.8875   18.0598 C   0  0  0  0  0  0  0  0  0  0  0  0
   22.6410   42.3059   18.2193 C   0  0  0  0  0  0  0  0  0  0  0  0
   24.0803   42.3121   18.5328 N   0  0  0  0  0  0  0  0  0  0  0  0
   24.7072   43.5514   18.9301 C   0  0  0  0  0  0  0  0  0  0  0  0
   25.5349   43.5308   19.9334 N   0  0  0  0  0  4  0  0  0  0  0  0
   24.4423   44.7620   18.2491 N   0  0  0  0  0  0  0  0  0  0  0  0
   17.9890   42.3490   15.9585 N   0  0  0  0  0  0  0  0  0  0  0  0
   17.2102   43.0498   16.9467 C   0  0  2  0  0  0  0  0  0  0  0  0
   17.0374   44.4903   16.6978 C   0  0  0  0  0  0  0  0  0  0  0  0
   18.0631   45.2327   16.9484 O   0  0  0  0  0  0  0  0  0  0  0  0
   17.6452   42.7896   18.3749 C   0  0  0  0  0  0  0  0  0  0  0  0
   19.1394   42.4269   18.3220 C   0  0  1  0  0  0  0  0  0  0  0  0
   19.3455   41.1272   17.5865 C   0  0  0  0  0  0  0  0  0  0  0  0
   19.9023   43.4866   17.5440 C   0  0  0  0  0  0  0  0  0  0  0  0
   15.9150   45.1688   16.2281 N   0  0  0  0  0  0  0  0  0  0  0  0
   15.0666   44.8995   15.1165 C   0  0  2  0  0  0  0  0  0  0  0  0
   15.2547   45.9228   14.0520 C   0  0  0  0  0  0  0  0  0  0  0  0
   16.0145   46.9199   14.2818 O   0  0  0  0  0  0  0  0  0  0  0  0
   13.5876   44.8420   15.5508 C   0  0  0  0  0  0  0  0  0  0  0  0
   13.0366   46.2046   15.6643 C   0  0  0  0  0  0  0  0  0  0  0  0
   13.7405   47.2930   15.2109 C   0  0  0  0  0  0  0  0  0  0  0  0
   11.8026   46.4501   16.2111 C   0  0  0  0  0  0  0  0  0  0  0  0
   13.2668   48.5814   15.2829 C   0  0  0  0  0  0  0  0  0  0  0  0
   11.2934   47.7304   16.2995 C   0  0  0  0  0  0  0  0  0  0  0  0
   12.0143   48.7843   15.8423 C   0  0  0  0  0  0  0  0  0  0  0  0
   11.5156   50.1037   15.9198 O   0  0  0  0  0  0  0  0  0  0  0  0
   14.6392   45.8704   12.7800 N   0  0  0  0  0  0  0  0  0  0  0  0
   14.4671   44.6684   11.9886 C   0  0  0  0  0  0  0  0  0  0  0  0
   13.8073   44.9751   10.6909 C   0  0  0  0  0  0  0  0  0  0  0  0
   14.2914   45.8980    9.9877 O   0  0  0  0  0  0  0  0  0  0  0  0
   12.6546   44.2776   10.2037 N   0  0  0  0  0  0  0  0  0  0  0  0
   12.4610   42.8798   10.3215 C   0  0  2  0  0  0  0  0  0  0  0  0
   12.8688   42.0248    9.1925 C   0  0  0  0  0  0  0  0  0  0  0  0
   12.5130   40.7844    9.4204 O   0  0  0  0  0  0  0  0  0  0  0  0
   11.1592   42.4428   10.9403 C   0  0  0  0  0  0  0  0  0  0  0  0
    9.9444   42.9408   10.3127 C   0  0  0  0  0  0  0  0  0  0  0  0
   10.0639   44.0843    9.5216 C   0  0  0  0  0  0  0  0  0  0  0  0
    8.7045   42.3444   10.4917 C   0  0  0  0  0  0  0  0  0  0  0  0
    8.9632   44.6194    8.9220 C   0  0  0  0  0  0  0  0  0  0  0  0
    7.5855   42.8752    9.8933 C   0  0  0  0  0  0  0  0  0  0  0  0
    7.7434   44.0014    9.1211 C   0  0  0  0  0  0  0  0  0  0  0  0
   13.5240   42.2645    8.0052 N   0  0  0  0  0  0  0  0  0  0  0  0
   13.1233   42.8210    6.7339 C   0  0  2  0  0  0  0  0  0  0  0  0
   14.1088   43.8157    6.2260 C   0  0  0  0  0  0  0  0  0  0  0  0
   14.5711   44.5705    7.1755 O   0  0  0  0  0  0  0  0  0  0  0  0
   11.7322   43.3853    6.7635 C   0  0  0  0  0  0  0  0  0  0  0  0
   10.9592   43.1437    8.0067 C   0  0  0  0  0  0  0  0  0  0  0  0
   11.7780   42.3892    8.9996 C   0  0  0  0  0  0  0  0  0  0  0  0
   13.2230   42.8747    9.0120 C   0  0  0  0  0  0  0  0  0  0  0  0
   14.0313   42.0025    9.8695 N   0  0  0  0  0  4  0  0  0  0  0  0
   14.5558   44.0117    4.9154 N   0  0  0  0  0  0  0  0  0  0  0  0
   15.3379   43.1755    4.0351 C   0  0  2  0  0  0  0  0  0  0  0  0
   16.4711   42.5170    4.7202 C   0  0  0  0  0  0  0  0  0  0  0  0
   16.0895   42.1358    5.9221 O   0  0  0  0  0  0  0  0  0  0  0  0
   15.7433   44.0507    2.8624 C   0  0  2  0  0  0  0  0  0  0  0  0
   17.1440   44.5812    3.0290 C   0  0  0  0  0  0  0  0  0  0  0  0
   14.7909   45.2310    2.8418 C   0  0  0  0  0  0  0  0  0  0  0  0
   17.7048   44.4669    4.3988 C   0  0  0  0  0  0  0  0  0  0  0  0
   17.7698   42.2206    4.4321 N   0  0  0  0  0  0  0  0  0  0  0  0
   18.5406   41.2319    3.7213 C   0  0  2  0  0  0  0  0  0  0  0  0
   19.9643   41.3320    4.1990 C   0  0  0  0  0  0  0  0  0  0  0  0
   19.9886   41.5488    5.4935 O   0  0  0  0  0  0  0  0  0  0  0  0
   18.3739   41.0960    2.2720 C   0  0  0  0  0  0  0  0  0  0  0  0
   18.7515   42.2616    1.4357 C   0  0  0  0  0  0  0  0  0  0  0  0
   19.6447   42.3927    0.4540 N   0  0  0  0  0  0  0  0  0  0  0  0
   18.1673   43.5388    1.5620 C   0  0  0  0  0  0  0  0  0  0  0  0
   19.6237   43.6504   -0.0024 C   0  0  0  0  0  0  0  0  0  0  0  0
   18.7207   44.3538    0.6734 N   0  0  0  0  0  0  0  0  0  0  0  0
   22.3139   41.5509    2.8746 O   0  0  0  0  0  0  0  0  0  0  0  0
  3  1  1  0
  1 23  1  0
  2  4  1  0
 19  2  1  0
  2 27  1  0
 16  3  1  0
  3 26  2  0
  4  6  1  0
 44  5  1  0
  6 16  1  1
  6 45  1  0
  8  7  1  0
  7 12  2  0
  7 44  1  0
  9  8  2  0
  9 10  1  0
 35  9  1  0
 10 13  2  0
 14 11  1  0
 11 27  2  0
 13 12  1  0
 13 14  1  0
 14 19  2  0
 45 15  2  0
 23 17  1  0
 17 24  1  0
 17 25  2  0
 44 18  2  0
 43 20  2  0
 41 21  2  0
 39 22  2  0
 28 33  1  0
 28 36  1  0
 37 28  1  0
 38 29  1  0
 29111  1  0
119 29  1  0
 30 39  1  0
 40 30  1  0
 31 41  1  0
 42 31  1  0
 43 32  1  0
 33 34  2  0
 35 34  1  0
 36 35  2  0
 38 37  1  0
 38 39  1  6
 38119  1  0
 41 40  1  0
 42 43  1  0
 45 46  1  0
 46 47  1  0
 47 48  1  0
 47 50  1  1
 48 49  2  0
 48 57  1  0
 50 51  1  0
 51 52  1  0
 52 53  1  0
 53 54  1  0
 54 55  2  0
 54 56  1  0
 57 58  1  0
 58 59  1  0
 58 61  1  1
 59 60  2  0
 59 65  1  0
 61 62  1  0
 62 63  1  6
 62 64  1  0
 65 66  1  0
 66 67  1  0
 66 69  1  1
 67 68  2  0
 67 77  1  0
 69 70  1  0
 70 71  2  0
 70 72  1  0
 71 73  1  0
 72 74  2  0
 73 75  2  0
 74 75  1  0
 75 76  1  0
 77 78  1  0
 78 79  1  0
 79 80  2  0
 79 81  1  0
 81 82  1  0
 82 83  1  0
 82 85  1  6
 83 84  2  0
 83 92  1  0
 85 86  1  0
 86 87  2  0
 86 88  1  0
 87 89  1  0
 88 90  2  0
 89 91  2  0
 90 91  1  0
 92 93  1  0
 93 94  1  0
 93 96  1  1
 94 95  2  0
 94101  1  0
 96 97  1  0
 97 98  1  0
 98 99  1  0
 99100  1  0
102101  1  1
102103  1  0
102105  1  0
103104  2  0
103109  1  0
105106  1  0
105107  1  1
106108  1  0
109110  1  0
110111  1  0
110113  1  6
111112  2  0
113114  1  0
114115  1  0
114116  2  0
115117  2  0
116118  1  0
117118  1  0
M  CHG  3   5  -1  55   1 100   1
M  END
$$$$
