
     RDKit          3D

119126  0  0  0  0  0  0  0  0999 V2000
   17.0585   36.4476    3.4294 C   0  0  0  0  0  0  0  0  0  0  0  0
   18.5881   39.6797    3.9773 N   0  0  0  0  0  0  0  0  0  0  0  0
   15.7741   37.1458    3.1562 C   0  0  0  0  0  0  0  0  0  0  0  0
   17.3035   40.2581    3.5332 C   0  0  0  0  0  0  0  0  0  0  0  0
   23.6601   34.6814    5.1785 O   0  0  0  0  0  1  0  0  0  0  0  0
   16.1725   39.4710    4.0803 C   0  0  2  0  0  0  0  0  0  0  0  0
   22.8974   36.6629    6.3964 C   0  0  0  0  0  0  0  0  0  0  0  0
   23.6693   37.5077    7.1273 C   0  0  0  0  0  0  0  0  0  0  0  0
   23.4644   38.9167    7.2389 C   0  0  0  0  0  0  0  0  0  0  0  0
   22.4067   39.4609    6.5557 C   0  0  0  0  0  0  0  0  0  0  0  0
   20.3718   38.5489    3.6226 N   0  0  0  0  0  0  0  0  0  0  0  0
   21.8547   37.2693    5.7371 C   0  0  0  0  0  0  0  0  0  0  0  0
   21.5807   38.6611    5.7948 C   0  0  0  0  0  0  0  0  0  0  0  0
   20.3929   39.0084    4.9558 C   0  0  0  0  0  0  0  0  0  0  0  0
   14.1888   39.2180    5.2093 O   0  0  0  0  0  0  0  0  0  0  0  0
   15.5656   38.5248    3.1379 N   0  0  0  0  0  0  0  0  0  0  0  0
   18.1030   34.2907    3.9033 C   0  0  0  0  0  0  0  0  0  0  0  0
   22.9401   34.5265    7.3218 O   0  0  0  0  0  0  0  0  0  0  0  0
   19.2334   39.7235    5.1339 C   0  0  0  0  0  0  0  0  0  0  0  0
   30.3041   47.8432    7.3410 O   0  0  0  0  0  0  0  0  0  0  0  0
   29.7839   45.6216   11.7773 O   0  0  0  0  0  0  0  0  0  0  0  0
   29.3168   40.9667   12.2409 O   0  0  0  0  0  0  0  0  0  0  0  0
   16.9648   35.1618    3.9873 N   0  0  0  0  0  0  0  0  0  0  0  0
   19.2801   34.6451    3.0724 C   0  0  0  0  0  0  0  0  0  0  0  0
   18.1406   33.2035    4.5329 O   0  0  0  0  0  0  0  0  0  0  0  0
   14.7982   36.3730    2.9250 O   0  0  0  0  0  0  0  0  0  0  0  0
   19.3028   38.9576    3.0703 N   0  0  0  0  0  0  0  0  0  0  0  0
   26.0043   40.7209    9.2162 N   0  0  0  0  0  0  0  0  0  0  0  0
   26.0864   41.1208   11.8782 N   0  0  0  0  0  0  0  0  0  0  0  0
   28.9818   43.1676   11.6857 N   0  0  0  0  0  0  0  0  0  0  0  0
   30.2164   45.9147    9.5462 N   0  0  0  0  0  0  0  0  0  0  0  0
   30.5659   45.8504    6.1676 N   0  0  0  0  0  0  0  0  0  0  0  0
   25.5868   39.7055    9.9770 N   0  0  0  0  0  0  0  0  0  0  0  0
   24.7054   38.9925    9.4289 N   0  0  0  0  0  0  0  0  0  0  0  0
   24.4700   39.5551    8.1550 C   0  0  0  0  0  0  0  0  0  0  0  0
   25.3099   40.6336    8.0711 C   0  0  0  0  0  0  0  0  0  0  0  0
   27.0192   41.6318    9.6770 C   0  0  0  0  0  0  0  0  0  0  0  0
   27.2579   41.3832   11.1956 C   0  0  1  0  0  0  0  0  0  0  0  0
   28.5503   41.8216   11.7276 C   0  0  0  0  0  0  0  0  0  0  0  0
   29.4594   43.6609   10.3860 C   0  0  0  0  0  0  0  0  0  0  0  0
   29.8187   45.0993   10.6314 C   0  0  0  0  0  0  0  0  0  0  0  0
   29.3430   45.9717    8.3800 C   0  0  0  0  0  0  0  0  0  0  0  0
   30.0914   46.5892    7.2734 C   0  0  0  0  0  0  0  0  0  0  0  0
   23.1654   35.2486    6.3229 C   0  0  0  0  0  0  0  0  0  0  0  0
   15.1584   40.1020    4.9009 C   0  0  0  0  0  0  0  0  0  0  0  0
   14.8726   41.3284    5.4651 N   0  0  0  0  0  0  0  0  0  0  0  0
   15.2528   42.6784    5.1914 C   0  0  2  0  0  0  0  0  0  0  0  0
   14.9562   43.6427    6.3140 C   0  0  0  0  0  0  0  0  0  0  0  0
   15.5528   44.7792    6.0839 O   0  0  0  0  0  0  0  0  0  0  0  0
   14.9382   43.2422    3.8692 C   0  0  0  0  0  0  0  0  0  0  0  0
   14.4439   42.3602    2.7908 C   0  0  0  0  0  0  0  0  0  0  0  0
   12.9762   42.3655    2.5354 C   0  0  0  0  0  0  0  0  0  0  0  0
   12.7262   41.5680    1.3223 N   0  0  0  0  0  0  0  0  0  0  0  0
   11.9751   40.3390    1.4323 C   0  0  0  0  0  0  0  0  0  0  0  0
   11.7458   39.6564    0.3489 N   0  0  0  0  0  4  0  0  0  0  0  0
   11.5020   39.8744    2.6812 N   0  0  0  0  0  0  0  0  0  0  0  0
   14.2143   43.5167    7.4635 N   0  0  0  0  0  0  0  0  0  0  0  0
   12.8036   43.5432    7.7522 C   0  0  2  0  0  0  0  0  0  0  0  0
   12.3327   42.4835    8.6591 C   0  0  0  0  0  0  0  0  0  0  0  0
   12.2268   41.3053    8.1425 O   0  0  0  0  0  0  0  0  0  0  0  0
   11.9228   43.6427    6.5231 C   0  0  0  0  0  0  0  0  0  0  0  0
   12.8422   43.4505    5.3046 C   0  0  1  0  0  0  0  0  0  0  0  0
   14.0670   44.3218    5.4196 C   0  0  0  0  0  0  0  0  0  0  0  0
   13.3393   42.0151    5.2524 C   0  0  0  0  0  0  0  0  0  0  0  0
   11.9822   42.5747   10.0042 N   0  0  0  0  0  0  0  0  0  0  0  0
   12.6620   43.1775   11.1008 C   0  0  2  0  0  0  0  0  0  0  0  0
   13.1752   42.1392   12.0358 C   0  0  0  0  0  0  0  0  0  0  0  0
   12.8730   40.9185   11.8284 O   0  0  0  0  0  0  0  0  0  0  0  0
   11.7411   44.1645   11.8473 C   0  0  0  0  0  0  0  0  0  0  0  0
   11.7029   43.8381   13.2844 C   0  0  0  0  0  0  0  0  0  0  0  0
   11.1108   44.6862   14.1875 C   0  0  0  0  0  0  0  0  0  0  0  0
   12.2397   42.6788   13.7844 C   0  0  0  0  0  0  0  0  0  0  0  0
   11.0387   44.4229   15.5348 C   0  0  0  0  0  0  0  0  0  0  0  0
   12.1855   42.3798   15.1313 C   0  0  0  0  0  0  0  0  0  0  0  0
   11.5935   43.2392   15.9975 C   0  0  0  0  0  0  0  0  0  0  0  0
   11.5236   42.9563   17.3797 O   0  0  0  0  0  0  0  0  0  0  0  0
   13.9877   42.4124   13.1603 N   0  0  0  0  0  0  0  0  0  0  0  0
   15.0683   43.3779   13.1901 C   0  0  0  0  0  0  0  0  0  0  0  0
   15.7335   43.3918   14.5209 C   0  0  0  0  0  0  0  0  0  0  0  0
   16.1126   42.2936   15.0012 O   0  0  0  0  0  0  0  0  0  0  0  0
   15.9626   44.5852   15.2798 N   0  0  0  0  0  0  0  0  0  0  0  0
   16.3759   45.8182   14.7193 C   0  0  2  0  0  0  0  0  0  0  0  0
   17.8178   46.1222   14.6972 C   0  0  0  0  0  0  0  0  0  0  0  0
   18.0105   47.3410   14.2564 O   0  0  0  0  0  0  0  0  0  0  0  0
   15.5347   47.0178   15.0685 C   0  0  0  0  0  0  0  0  0  0  0  0
   15.0429   47.0879   16.4362 C   0  0  0  0  0  0  0  0  0  0  0  0
   13.7909   46.5251   16.6881 C   0  0  0  0  0  0  0  0  0  0  0  0
   15.7498   47.7004   17.4611 C   0  0  0  0  0  0  0  0  0  0  0  0
   13.2580   46.5751   17.9415 C   0  0  0  0  0  0  0  0  0  0  0  0
   15.2228   47.7588   18.7302 C   0  0  0  0  0  0  0  0  0  0  0  0
   13.9876   47.1928   18.9392 C   0  0  0  0  0  0  0  0  0  0  0  0
   18.9466   45.4064   15.0287 N   0  0  0  0  0  0  0  0  0  0  0  0
   19.5889   45.0695   16.2778 C   0  0  2  0  0  0  0  0  0  0  0  0
   19.9792   43.6332   16.3337 C   0  0  0  0  0  0  0  0  0  0  0  0
   19.0734   42.8627   15.8133 O   0  0  0  0  0  0  0  0  0  0  0  0
   18.7720   45.4681   17.4729 C   0  0  0  0  0  0  0  0  0  0  0  0
   18.3048   44.3585   18.3402 C   0  0  0  0  0  0  0  0  0  0  0  0
   18.1403   43.1038   17.5501 C   0  0  0  0  0  0  0  0  0  0  0  0
   16.8237   43.0997   16.7814 C   0  0  0  0  0  0  0  0  0  0  0  0
   16.7080   41.8623   16.0037 N   0  0  0  0  0  4  0  0  0  0  0  0
   21.1436   43.0642   16.8592 N   0  0  0  0  0  0  0  0  0  0  0  0
   22.5245   43.1544   16.4461 C   0  0  2  0  0  0  0  0  0  0  0  0
   22.6955   43.0647   14.9799 C   0  0  0  0  0  0  0  0  0  0  0  0
   21.7235   43.7284   14.3880 O   0  0  0  0  0  0  0  0  0  0  0  0
   23.2749   42.0898   17.2264 C   0  0  2  0  0  0  0  0  0  0  0  0
   23.5708   40.8852   16.3706 C   0  0  0  0  0  0  0  0  0  0  0  0
   22.3680   41.6518   18.3607 C   0  0  0  0  0  0  0  0  0  0  0  0
   22.6822   40.7114   15.1943 C   0  0  0  0  0  0  0  0  0  0  0  0
   23.5737   42.4820   14.1157 N   0  0  0  0  0  0  0  0  0  0  0  0
   24.8760   42.7182   13.5455 C   0  0  2  0  0  0  0  0  0  0  0  0
   25.0137   41.8314   12.3373 C   0  0  0  0  0  0  0  0  0  0  0  0
   23.8775   41.7881   11.6811 O   0  0  0  0  0  0  0  0  0  0  0  0
   26.0475   42.7667   14.4241 C   0  0  0  0  0  0  0  0  0  0  0  0
   26.3220   41.5667   15.2518 C   0  0  0  0  0  0  0  0  0  0  0  0
   27.4059   40.7972   15.3608 N   0  0  0  0  0  0  0  0  0  0  0  0
   25.3864   40.9962   16.1394 C   0  0  0  0  0  0  0  0  0  0  0  0
   27.1726   39.8218   16.2466 C   0  0  0  0  0  0  0  0  0  0  0  0
   25.9380   39.9411   16.7247 N   0  0  0  0  0  0  0  0  0  0  0  0
   26.9402   40.0931   11.5696 O   0  0  0  0  0  0  0  0  0  0  0  0
  3  1  1  0
  1 23  1  0
  2  4  1  0
 19  2  1  0
  2 27  1  0
 16  3  1  0
  3 26  2  0
  4  6  1  0
 44  5  1  0
  6 16  1  6
  6 45  1  0
  8  7  1  0
  7 12  2  0
  7 44  1  0
  9  8  2  0
  9 10  1  0
 35  9  1  0
 10 13  2  0
 14 11  1  0
 11 27  2  0
 13 12  1  0
 13 14  1  0
 14 19  2  0
 45 15  2  0
 23 17  1  0
 17 24  1  0
 17 25  2  0
 44 18  2  0
 43 20  2  0
 41 21  2  0
 39 22  2  0
 28 33  1  0
 28 36  1  0
 37 28  1  0
 38 29  1  0
 29111  1  0
119 29  1  0
 30 39  1  0
 40 30  1  0
 31 41  1  0
 42 31  1  0
 43 32  1  0
 33 34  2  0
 35 34  1  0
 36 35  2  0
 38 37  1  0
 38 39  1  1
 38119  1  0
 41 40  1  0
 42 43  1  0
 45 46  1  0
 46 47  1  0
 47 48  1  0
 47 50  1  6
 48 49  2  0
 48 57  1  0
 50 51  1  0
 51 52  1  0
 52 53  1  0
 53 54  1  0
 54 55  2  0
 54 56  1  0
 57 58  1  0
 58 59  1  0
 58 61  1  6
 59 60  2  0
 59 65  1  0
 61 62  1  0
 62 63  1  1
 62 64  1  0
 65 66  1  0
 66 67  1  0
 66 69  1  1
 67 68  2  0
 67 77  1  0
 69 70  1  0
 70 71  2  0
 70 72  1  0
 71 73  1  0
 72 74  2  0
 73 75  2  0
 74 75  1  0
 75 76  1  0
 77 78  1  0
 78 79  1  0
 79 80  2  0
 79 81  1  0
 81 82  1  0
 82 83  1  0
 82 85  1  1
 83 84  2  0
 83 92  1  0
 85 86  1  0
 86 87  2  0
 86 88  1  0
 87 89  1  0
 88 90  2  0
 89 91  2  0
 90 91  1  0
 92 93  1  0
 93 94  1  0
 93 96  1  1
 94 95  2  0
 94101  1  0
 96 97  1  0
 97 98  1  0
 98 99  1  0
 99100  1  0
102101  1  6
102103  1  0
102105  1  0
103104  2  0
103109  1  0
105106  1  0
105107  1  1
106108  1  0
109110  1  0
110111  1  0
110113  1  1
111112  2  0
113114  1  0
114115  1  0
114116  2  0
115117  2  0
116118  1  0
117118  1  0
M  CHG  3   5  -1  55   1 100   1
M  END
$$$$
