
     RDKit          3D

119126  0  0  0  0  0  0  0  0999 V2000
   23.9766   34.4118    5.4070 C   0  0  0  0  0  0  0  0  0  0  0  0
   24.4547   39.1687    8.7335 N   0  0  0  0  0  0  0  0  0  0  0  0
   24.2657   34.9813    6.7501 C   0  0  0  0  0  0  0  0  0  0  0  0
   24.3025   38.7426    7.3274 C   0  0  0  0  0  0  0  0  0  0  0  0
   25.7946   37.8667   15.1550 O   0  0  0  0  0  1  0  0  0  0  0  0
   23.6897   37.3940    7.2657 C   0  0  2  0  0  0  0  0  0  0  0  0
   24.4313   39.7880   14.4902 C   0  0  0  0  0  0  0  0  0  0  0  0
   23.7577   40.9235   14.8075 C   0  0  0  0  0  0  0  0  0  0  0  0
   23.1884   41.8306   13.8628 C   0  0  0  0  0  0  0  0  0  0  0  0
   23.3319   41.5340   12.5312 C   0  0  0  0  0  0  0  0  0  0  0  0
   25.6429   39.5288   10.4784 N   0  0  0  0  0  0  0  0  0  0  0  0
   24.5397   39.5473   13.1411 C   0  0  0  0  0  0  0  0  0  0  0  0
   24.0034   40.3961   12.1374 C   0  0  0  0  0  0  0  0  0  0  0  0
   24.3058   39.8680   10.7717 C   0  0  0  0  0  0  0  0  0  0  0  0
   22.1361   35.8636    6.5460 O   0  0  0  0  0  0  0  0  0  0  0  0
   24.6345   36.2964    7.0331 N   0  0  0  0  0  0  0  0  0  0  0  0
   24.8640   32.1382    5.3019 C   0  0  0  0  0  0  0  0  0  0  0  0
   24.7241   39.1280   16.7041 O   0  0  0  0  0  0  0  0  0  0  0  0
   23.5869   39.6198    9.6275 C   0  0  0  0  0  0  0  0  0  0  0  0
   19.4885   51.2118   17.5879 O   0  0  0  0  0  0  0  0  0  0  0  0
   17.0028   48.9075   15.6978 O   0  0  0  0  0  0  0  0  0  0  0  0
   19.7037   47.1958   18.6718 O   0  0  0  0  0  0  0  0  0  0  0  0
   24.9249   33.5128    4.8917 N   0  0  0  0  0  0  0  0  0  0  0  0
   25.8219   31.5912    6.2945 C   0  0  0  0  0  0  0  0  0  0  0  0
   23.9966   31.3563    4.8373 O   0  0  0  0  0  0  0  0  0  0  0  0
   24.1571   34.1543    7.7026 O   0  0  0  0  0  0  0  0  0  0  0  0
   25.7032   39.1225    9.2758 N   0  0  0  0  0  0  0  0  0  0  0  0
   21.6417   44.8479   15.3186 N   0  0  0  0  0  0  0  0  0  0  0  0
   19.1330   45.1679   16.2445 N   0  0  0  0  0  0  0  0  0  0  0  0
   19.7274   48.6482   16.8957 N   0  0  0  0  0  0  0  0  0  0  0  0
   18.0541   50.8331   15.0364 N   0  0  0  0  0  0  0  0  0  0  0  0
   18.8547   53.3944   17.0864 N   0  0  0  0  0  0  0  0  0  0  0  0
   21.1166   43.8054   15.9679 N   0  0  0  0  0  0  0  0  0  0  0  0
   21.5529   42.6922   15.5729 N   0  0  0  0  0  0  0  0  0  0  0  0
   22.4769   42.9673   14.5407 C   0  0  0  0  0  0  0  0  0  0  0  0
   22.4968   44.3315   14.4224 C   0  0  0  0  0  0  0  0  0  0  0  0
   21.2680   46.1985   15.6478 C   0  0  0  0  0  0  0  0  0  0  0  0
   20.0324   46.1557   16.5944 C   0  0  1  0  0  0  0  0  0  0  0  0
   19.8142   47.3407   17.4274 C   0  0  0  0  0  0  0  0  0  0  0  0
   19.4124   48.7521   15.4637 C   0  0  0  0  0  0  0  0  0  0  0  0
   18.0933   49.4704   15.4135 C   0  0  0  0  0  0  0  0  0  0  0  0
   19.2359   51.6468   15.2959 C   0  0  0  0  0  0  0  0  0  0  0  0
   19.1976   52.0796   16.7021 C   0  0  0  0  0  0  0  0  0  0  0  0
   24.9867   38.9187   15.4969 C   0  0  0  0  0  0  0  0  0  0  0  0
   22.4553   37.1731    6.5394 C   0  0  0  0  0  0  0  0  0  0  0  0
   21.5029   37.8852    5.8394 N   0  0  0  0  0  0  0  0  0  0  0  0
   21.4777   39.1452    5.1659 C   0  0  2  0  0  0  0  0  0  0  0  0
   20.0904   39.6487    4.8505 C   0  0  0  0  0  0  0  0  0  0  0  0
   20.1528   40.8948    4.4710 O   0  0  0  0  0  0  0  0  0  0  0  0
   22.4213   39.3687    4.0592 C   0  0  0  0  0  0  0  0  0  0  0  0
   22.3818   38.4928    2.8690 C   0  0  0  0  0  0  0  0  0  0  0  0
   22.2129   37.0327    3.1120 C   0  0  0  0  0  0  0  0  0  0  0  0
   23.0120   36.6769    4.2974 N   0  0  0  0  0  0  0  0  0  0  0  0
   22.9457   35.3280    4.8098 C   0  0  0  0  0  0  0  0  0  0  0  0
   22.1728   34.4747    4.2042 N   0  0  0  0  0  4  0  0  0  0  0  0
   23.7028   34.9300    5.9358 N   0  0  0  0  0  0  0  0  0  0  0  0
   18.8577   39.0444    4.9041 N   0  0  0  0  0  0  0  0  0  0  0  0
   18.1605   38.1153    4.0527 C   0  0  2  0  0  0  0  0  0  0  0  0
   17.4993   37.0024    4.7536 C   0  0  0  0  0  0  0  0  0  0  0  0
   18.2759   36.0632    5.1789 O   0  0  0  0  0  0  0  0  0  0  0  0
   18.9816   37.6138    2.8819 C   0  0  0  0  0  0  0  0  0  0  0  0
   19.9547   36.5626    3.4435 C   0  0  1  0  0  0  0  0  0  0  0  0
   20.6905   37.1055    4.6420 C   0  0  0  0  0  0  0  0  0  0  0  0
   19.1809   35.3475    3.9284 C   0  0  0  0  0  0  0  0  0  0  0  0
   16.1449   36.8191    5.0229 N   0  0  0  0  0  0  0  0  0  0  0  0
   15.1810   37.7089    5.5770 C   0  0  2  0  0  0  0  0  0  0  0  0
   14.7861   37.2710    6.9437 C   0  0  0  0  0  0  0  0  0  0  0  0
   15.2345   36.1649    7.3909 O   0  0  0  0  0  0  0  0  0  0  0  0
   13.9395   37.8156    4.6676 C   0  0  0  0  0  0  0  0  0  0  0  0
   14.2878   38.4979    3.4082 C   0  0  0  0  0  0  0  0  0  0  0  0
   14.2350   37.8358    2.2063 C   0  0  0  0  0  0  0  0  0  0  0  0
   14.6659   39.8161    3.3722 C   0  0  0  0  0  0  0  0  0  0  0  0
   14.5383   38.4292    1.0040 C   0  0  0  0  0  0  0  0  0  0  0  0
   14.9770   40.4461    2.1836 C   0  0  0  0  0  0  0  0  0  0  0  0
   14.9151   39.7637    1.0132 C   0  0  0  0  0  0  0  0  0  0  0  0
   15.2270   40.3853   -0.2163 O   0  0  0  0  0  0  0  0  0  0  0  0
   13.9319   38.0048    7.7989 N   0  0  0  0  0  0  0  0  0  0  0  0
   13.9539   39.4450    7.9596 C   0  0  0  0  0  0  0  0  0  0  0  0
   12.9425   39.8851    8.9580 C   0  0  0  0  0  0  0  0  0  0  0  0
   12.9373   39.3182   10.0801 O   0  0  0  0  0  0  0  0  0  0  0  0
   11.9787   40.9153    8.7083 N   0  0  0  0  0  0  0  0  0  0  0  0
   12.2578   42.1141    8.0082 C   0  0  2  0  0  0  0  0  0  0  0  0
   12.6270   43.3061    8.7922 C   0  0  0  0  0  0  0  0  0  0  0  0
   12.7347   44.3452    8.0011 O   0  0  0  0  0  0  0  0  0  0  0  0
   11.3403   42.4367    6.8581 C   0  0  0  0  0  0  0  0  0  0  0  0
   11.2195   43.8420    6.5005 C   0  0  0  0  0  0  0  0  0  0  0  0
   11.2461   44.7656    7.5465 C   0  0  0  0  0  0  0  0  0  0  0  0
   11.0592   44.2760    5.1924 C   0  0  0  0  0  0  0  0  0  0  0  0
   11.1149   46.0971    7.2868 C   0  0  0  0  0  0  0  0  0  0  0  0
   10.9243   45.6168    4.9169 C   0  0  0  0  0  0  0  0  0  0  0  0
   10.9563   46.4958    5.9733 C   0  0  0  0  0  0  0  0  0  0  0  0
   12.8740   43.5273   10.1288 N   0  0  0  0  0  0  0  0  0  0  0  0
   12.0308   43.6926   11.2899 C   0  0  2  0  0  0  0  0  0  0  0  0
   12.5120   42.8873   12.4468 C   0  0  0  0  0  0  0  0  0  0  0  0
   12.9324   41.7147   12.0817 O   0  0  0  0  0  0  0  0  0  0  0  0
   10.5829   43.4268   10.9944 C   0  0  0  0  0  0  0  0  0  0  0  0
   10.2524   42.0503   10.5496 C   0  0  0  0  0  0  0  0  0  0  0  0
   11.2521   41.0728   11.0698 C   0  0  0  0  0  0  0  0  0  0  0  0
   12.3255   40.7693   10.0306 C   0  0  0  0  0  0  0  0  0  0  0  0
   12.7512   39.3716   10.1518 N   0  0  0  0  0  4  0  0  0  0  0  0
   12.5512   43.2389   13.7998 N   0  0  0  0  0  0  0  0  0  0  0  0
   13.3187   44.2361   14.5085 C   0  0  2  0  0  0  0  0  0  0  0  0
   14.7283   44.3015   14.0661 C   0  0  0  0  0  0  0  0  0  0  0  0
   14.7804   44.1501   12.7585 O   0  0  0  0  0  0  0  0  0  0  0  0
   13.1438   43.9393   15.9873 C   0  0  2  0  0  0  0  0  0  0  0  0
   14.1301   42.9035   16.4619 C   0  0  0  0  0  0  0  0  0  0  0  0
   11.7464   43.3758   16.1626 C   0  0  0  0  0  0  0  0  0  0  0  0
   14.9774   42.3039   15.4006 C   0  0  0  0  0  0  0  0  0  0  0  0
   15.9473   44.4679   14.6528 N   0  0  0  0  0  0  0  0  0  0  0  0
   16.7917   45.5226   15.1542 C   0  0  2  0  0  0  0  0  0  0  0  0
   18.1864   44.9711   15.2793 C   0  0  0  0  0  0  0  0  0  0  0  0
   18.4508   44.1855   14.2613 O   0  0  0  0  0  0  0  0  0  0  0  0
   16.3343   46.3330   16.2860 C   0  0  0  0  0  0  0  0  0  0  0  0
   16.4290   45.7244   17.6354 C   0  0  0  0  0  0  0  0  0  0  0  0
   16.1306   46.2033   18.8439 N   0  0  0  0  0  0  0  0  0  0  0  0
   16.8965   44.4155   17.8737 C   0  0  0  0  0  0  0  0  0  0  0  0
   16.3877   45.2709   19.7686 C   0  0  0  0  0  0  0  0  0  0  0  0
   16.8562   44.1760   19.1780 N   0  0  0  0  0  0  0  0  0  0  0  0
   19.9680   44.9809   17.3161 O   0  0  0  0  0  0  0  0  0  0  0  0
  3  1  1  0
  1 23  1  0
  2  4  1  0
 19  2  1  0
  2 27  1  0
 16  3  1  0
  3 26  2  0
  4  6  1  0
 44  5  1  0
  6 16  1  6
  6 45  1  0
  8  7  1  0
  7 12  2  0
  7 44  1  0
  9  8  2  0
  9 10  1  0
 35  9  1  0
 10 13  2  0
 14 11  1  0
 11 27  2  0
 13 12  1  0
 13 14  1  0
 14 19  2  0
 45 15  2  0
 23 17  1  0
 17 24  1  0
 17 25  2  0
 44 18  2  0
 43 20  2  0
 41 21  2  0
 39 22  2  0
 28 33  1  0
 28 36  1  0
 37 28  1  0
 38 29  1  0
 29111  1  0
119 29  1  0
 30 39  1  0
 40 30  1  0
 31 41  1  0
 42 31  1  0
 43 32  1  0
 33 34  2  0
 35 34  1  0
 36 35  2  0
 38 37  1  0
 38 39  1  1
 38119  1  0
 41 40  1  0
 42 43  1  0
 45 46  1  0
 46 47  1  0
 47 48  1  0
 47 50  1  6
 48 49  2  0
 48 57  1  0
 50 51  1  0
 51 52  1  0
 52 53  1  0
 53 54  1  0
 54 55  2  0
 54 56  1  0
 57 58  1  0
 58 59  1  0
 58 61  1  6
 59 60  2  0
 59 65  1  0
 61 62  1  0
 62 63  1  1
 62 64  1  0
 65 66  1  0
 66 67  1  0
 66 69  1  6
 67 68  2  0
 67 77  1  0
 69 70  1  0
 70 71  2  0
 70 72  1  0
 71 73  1  0
 72 74  2  0
 73 75  2  0
 74 75  1  0
 75 76  1  0
 77 78  1  0
 78 79  1  0
 79 80  2  0
 79 81  1  0
 81 82  1  0
 82 83  1  0
 82 85  1  1
 83 84  2  0
 83 92  1  0
 85 86  1  0
 86 87  2  0
 86 88  1  0
 87 89  1  0
 88 90  2  0
 89 91  2  0
 90 91  1  0
 92 93  1  0
 93 94  1  0
 93 96  1  6
 94 95  2  0
 94101  1  0
 96 97  1  0
 97 98  1  0
 98 99  1  0
 99100  1  0
102101  1  6
102103  1  0
102105  1  0
103104  2  0
103109  1  0
105106  1  0
105107  1  6
106108  1  0
109110  1  0
110111  1  0
110113  1  1
111112  2  0
113114  1  0
114115  1  0
114116  2  0
115117  2  0
116118  1  0
117118  1  0
M  CHG  3   5  -1  55   1 100   1
M  END
$$$$
