
     RDKit          3D

119126  0  0  0  0  0  0  0  0999 V2000
   28.9481   41.3431   12.9842 C   0  0  0  0  0  0  0  0  0  0  0  0
   25.7791   41.3699    9.4707 N   0  0  0  0  0  0  0  0  0  0  0  0
   29.0033   42.5247   12.0827 C   0  0  0  0  0  0  0  0  0  0  0  0
   26.3487   41.2422   10.8275 C   0  0  0  0  0  0  0  0  0  0  0  0
   25.3418   44.4019    3.5138 O   0  0  0  0  0  1  0  0  0  0  0  0
   26.5581   42.5841   11.4221 C   0  0  2  0  0  0  0  0  0  0  0  0
   23.4964   43.0820    4.4326 C   0  0  0  0  0  0  0  0  0  0  0  0
   22.2833   42.4923    4.2765 C   0  0  0  0  0  0  0  0  0  0  0  0
   21.6960   41.5691    5.1943 C   0  0  0  0  0  0  0  0  0  0  0  0
   22.4108   41.2519    6.3212 C   0  0  0  0  0  0  0  0  0  0  0  0
   25.9521   41.3036    7.3372 N   0  0  0  0  0  0  0  0  0  0  0  0
   24.1612   42.7238    5.5813 C   0  0  0  0  0  0  0  0  0  0  0  0
   23.6494   41.8149    6.5444 C   0  0  0  0  0  0  0  0  0  0  0  0
   24.6183   41.6219    7.6666 C   0  0  0  0  0  0  0  0  0  0  0  0
   26.3331   44.1712   13.0666 O   0  0  0  0  0  0  0  0  0  0  0  0
   27.9393   43.0750   11.3681 N   0  0  0  0  0  0  0  0  0  0  0  0
   29.6785   39.0483   13.3946 C   0  0  0  0  0  0  0  0  0  0  0  0
   23.2881   44.4454    2.5563 O   0  0  0  0  0  0  0  0  0  0  0  0
   24.5588   41.6536    9.0389 C   0  0  0  0  0  0  0  0  0  0  0  0
   14.2991   33.5855    2.7750 O   0  0  0  0  0  0  0  0  0  0  0  0
   15.4536   36.1757    0.6229 O   0  0  0  0  0  0  0  0  0  0  0  0
   13.9287   40.1148    2.6612 O   0  0  0  0  0  0  0  0  0  0  0  0
   29.5211   40.1571   12.4961 N   0  0  0  0  0  0  0  0  0  0  0  0
   28.5606   38.1081   13.6554 C   0  0  0  0  0  0  0  0  0  0  0  0
   30.7675   38.8365   13.9853 O   0  0  0  0  0  0  0  0  0  0  0  0
   30.1503   43.0509   11.9808 O   0  0  0  0  0  0  0  0  0  0  0  0
   26.6119   41.1597    8.4136 N   0  0  0  0  0  0  0  0  0  0  0  0
   18.4582   40.1495    4.1372 N   0  0  0  0  0  0  0  0  0  0  0  0
   15.9868   41.1597    4.4913 N   0  0  0  0  0  0  0  0  0  0  0  0
   15.2159   38.3193    2.0417 N   0  0  0  0  0  0  0  0  0  0  0  0
   16.9911   35.0801    1.9215 N   0  0  0  0  0  0  0  0  0  0  0  0
   15.7047   32.2523    1.4852 N   0  0  0  0  0  0  0  0  0  0  0  0
   18.3426   41.4754    4.0240 N   0  0  0  0  0  0  0  0  0  0  0  0
   19.3820   42.1035    4.3567 N   0  0  0  0  0  0  0  0  0  0  0  0
   20.3297   41.1318    4.7470 C   0  0  0  0  0  0  0  0  0  0  0  0
   19.7018   39.9250    4.5891 C   0  0  0  0  0  0  0  0  0  0  0  0
   17.3719   39.2722    3.7874 C   0  0  0  0  0  0  0  0  0  0  0  0
   16.0886   40.1290    3.5778 C   0  0  1  0  0  0  0  0  0  0  0  0
   15.0382   39.5294    2.7515 C   0  0  0  0  0  0  0  0  0  0  0  0
   16.1217   37.3328    2.6476 C   0  0  0  0  0  0  0  0  0  0  0  0
   16.1514   36.1906    1.6716 C   0  0  0  0  0  0  0  0  0  0  0  0
   16.5759   34.1276    2.9444 C   0  0  0  0  0  0  0  0  0  0  0  0
   15.4831   33.3089    2.3953 C   0  0  0  0  0  0  0  0  0  0  0  0
   24.0327   44.0024    3.4616 C   0  0  0  0  0  0  0  0  0  0  0  0
   25.9328   42.9440   12.6789 C   0  0  0  0  0  0  0  0  0  0  0  0
   25.0553   42.4212   13.6068 N   0  0  0  0  0  0  0  0  0  0  0  0
   24.6322   41.1044   13.9656 C   0  0  2  0  0  0  0  0  0  0  0  0
   23.3825   41.0667   14.8111 C   0  0  0  0  0  0  0  0  0  0  0  0
   22.9362   39.8432   14.8782 O   0  0  0  0  0  0  0  0  0  0  0  0
   25.6467   40.1402   14.4198 C   0  0  0  0  0  0  0  0  0  0  0  0
   26.7371   39.7337   13.5083 C   0  0  0  0  0  0  0  0  0  0  0  0
   26.7937   40.4094   12.1818 C   0  0  0  0  0  0  0  0  0  0  0  0
   25.4895   40.2213   11.5233 N   0  0  0  0  0  0  0  0  0  0  0  0
   25.2890   40.7565   10.1966 C   0  0  0  0  0  0  0  0  0  0  0  0
   26.0932   41.6901    9.7794 N   0  0  0  0  0  4  0  0  0  0  0  0
   24.2534   40.2810    9.3595 N   0  0  0  0  0  0  0  0  0  0  0  0
   22.6862   42.0518   15.4686 N   0  0  0  0  0  0  0  0  0  0  0  0
   22.8860   42.7644   16.7040 C   0  0  2  0  0  0  0  0  0  0  0  0
   22.6799   44.2199   16.6249 C   0  0  0  0  0  0  0  0  0  0  0  0
   23.6245   44.8930   16.0587 O   0  0  0  0  0  0  0  0  0  0  0  0
   24.1883   42.4336   17.4048 C   0  0  0  0  0  0  0  0  0  0  0  0
   24.0461   41.0009   17.9471 C   0  0  1  0  0  0  0  0  0  0  0  0
   23.1232   40.9722   19.1387 C   0  0  0  0  0  0  0  0  0  0  0  0
   23.4134   40.1083   16.8919 C   0  0  0  0  0  0  0  0  0  0  0  0
   21.6024   44.9771   17.0789 N   0  0  0  0  0  0  0  0  0  0  0  0
   20.2010   44.7935   16.9044 C   0  0  2  0  0  0  0  0  0  0  0  0
   19.6425   45.8378   16.0027 C   0  0  0  0  0  0  0  0  0  0  0  0
   20.4022   46.7812   15.6062 O   0  0  0  0  0  0  0  0  0  0  0  0
   19.4681   44.8080   18.2617 C   0  0  0  0  0  0  0  0  0  0  0  0
   20.0719   45.8124   19.1559 C   0  0  0  0  0  0  0  0  0  0  0  0
   21.3681   46.2297   18.9793 C   0  0  0  0  0  0  0  0  0  0  0  0
   19.3739   46.3831   20.1899 C   0  0  0  0  0  0  0  0  0  0  0  0
   21.9733   47.1710   19.7776 C   0  0  0  0  0  0  0  0  0  0  0  0
   19.9480   47.3323   21.0120 C   0  0  0  0  0  0  0  0  0  0  0  0
   21.2312   47.7228   20.8108 C   0  0  0  0  0  0  0  0  0  0  0  0
   21.8413   48.6928   21.6366 O   0  0  0  0  0  0  0  0  0  0  0  0
   18.3046   45.8623   15.5459 N   0  0  0  0  0  0  0  0  0  0  0  0
   17.5455   44.6984   15.1338 C   0  0  0  0  0  0  0  0  0  0  0  0
   16.1810   45.0844   14.6836 C   0  0  0  0  0  0  0  0  0  0  0  0
   16.0803   45.9999   13.8278 O   0  0  0  0  0  0  0  0  0  0  0  0
   14.9821   44.4711   15.1726 N   0  0  0  0  0  0  0  0  0  0  0  0
   14.8409   43.0838   15.4190 C   0  0  2  0  0  0  0  0  0  0  0  0
   14.2710   42.2434   14.3509 C   0  0  0  0  0  0  0  0  0  0  0  0
   14.1043   41.0191   14.7871 O   0  0  0  0  0  0  0  0  0  0  0  0
   14.3391   42.7035   16.7874 C   0  0  0  0  0  0  0  0  0  0  0  0
   14.2252   43.7816   17.7580 C   0  0  0  0  0  0  0  0  0  0  0  0
   15.0359   44.9001   17.5596 C   0  0  0  0  0  0  0  0  0  0  0  0
   13.3776   43.7218   18.8550 C   0  0  0  0  0  0  0  0  0  0  0  0
   14.9981   45.9377   18.4425 C   0  0  0  0  0  0  0  0  0  0  0  0
   13.3308   44.7616   19.7542 C   0  0  0  0  0  0  0  0  0  0  0  0
   14.1436   45.8462   19.5245 C   0  0  0  0  0  0  0  0  0  0  0  0
   13.9031   42.4827   13.0456 N   0  0  0  0  0  0  0  0  0  0  0  0
   12.7551   43.1021   12.4254 C   0  0  2  0  0  0  0  0  0  0  0  0
   13.1492   44.0537   11.3495 C   0  0  0  0  0  0  0  0  0  0  0  0
   14.1956   44.7495   11.6750 O   0  0  0  0  0  0  0  0  0  0  0  0
   11.8363   43.7450   13.4238 C   0  0  0  0  0  0  0  0  0  0  0  0
   12.1297   43.4655   14.8511 C   0  0  0  0  0  0  0  0  0  0  0  0
   13.4250   42.7390   14.9917 C   0  0  0  0  0  0  0  0  0  0  0  0
   14.2027   42.7308   13.6805 C   0  0  0  0  0  0  0  0  0  0  0  0
   14.3180   41.3570   13.1816 N   0  0  0  0  0  4  0  0  0  0  0  0
   12.5450   44.2655   10.1061 N   0  0  0  0  0  0  0  0  0  0  0  0
   12.4155   43.4141    8.9467 C   0  0  2  0  0  0  0  0  0  0  0  0
   13.6547   42.6693    8.6361 C   0  0  0  0  0  0  0  0  0  0  0  0
   14.2158   42.2723    9.7600 O   0  0  0  0  0  0  0  0  0  0  0  0
   11.9232   44.3015    7.8173 C   0  0  2  0  0  0  0  0  0  0  0  0
   12.9935   44.5158    6.7782 C   0  0  0  0  0  0  0  0  0  0  0  0
   11.5829   45.6473    8.4289 C   0  0  0  0  0  0  0  0  0  0  0  0
   14.3869   44.4816    7.2893 C   0  0  0  0  0  0  0  0  0  0  0  0
   14.3424   42.3073    7.5164 N   0  0  0  0  0  0  0  0  0  0  0  0
   14.3155   41.2989    6.4872 C   0  0  2  0  0  0  0  0  0  0  0  0
   15.6596   41.3008    5.8102 C   0  0  0  0  0  0  0  0  0  0  0  0
   16.6094   41.4740    6.6997 O   0  0  0  0  0  0  0  0  0  0  0  0
   13.1611   41.2197    5.5884 C   0  0  0  0  0  0  0  0  0  0  0  0
   13.4397   41.0067    4.1470 C   0  0  0  0  0  0  0  0  0  0  0  0
   13.7137   41.8649    3.1636 N   0  0  0  0  0  0  0  0  0  0  0  0
   13.4591   39.7380    3.5317 C   0  0  0  0  0  0  0  0  0  0  0  0
   13.8930   41.1913    2.0214 C   0  0  0  0  0  0  0  0  0  0  0  0
   13.7380   39.8898    2.2436 N   0  0  0  0  0  0  0  0  0  0  0  0
   16.3816   41.4253    3.2052 O   0  0  0  0  0  0  0  0  0  0  0  0
  3  1  1  0
  1 23  1  0
  2  4  1  0
 19  2  1  0
  2 27  1  0
 16  3  1  0
  3 26  2  0
  4  6  1  0
 44  5  1  0
  6 16  1  1
  6 45  1  0
  8  7  1  0
  7 12  2  0
  7 44  1  0
  9  8  2  0
  9 10  1  0
 35  9  1  0
 10 13  2  0
 14 11  1  0
 11 27  2  0
 13 12  1  0
 13 14  1  0
 14 19  2  0
 45 15  2  0
 23 17  1  0
 17 24  1  0
 17 25  2  0
 44 18  2  0
 43 20  2  0
 41 21  2  0
 39 22  2  0
 28 33  1  0
 28 36  1  0
 37 28  1  0
 38 29  1  0
 29111  1  0
119 29  1  0
 30 39  1  0
 40 30  1  0
 31 41  1  0
 42 31  1  0
 43 32  1  0
 33 34  2  0
 35 34  1  0
 36 35  2  0
 38 37  1  0
 38 39  1  6
 38119  1  0
 41 40  1  0
 42 43  1  0
 45 46  1  0
 46 47  1  0
 47 48  1  0
 47 50  1  1
 48 49  2  0
 48 57  1  0
 50 51  1  0
 51 52  1  0
 52 53  1  0
 53 54  1  0
 54 55  2  0
 54 56  1  0
 57 58  1  0
 58 59  1  0
 58 61  1  6
 59 60  2  0
 59 65  1  0
 61 62  1  0
 62 63  1  1
 62 64  1  0
 65 66  1  0
 66 67  1  0
 66 69  1  1
 67 68  2  0
 67 77  1  0
 69 70  1  0
 70 71  2  0
 70 72  1  0
 71 73  1  0
 72 74  2  0
 73 75  2  0
 74 75  1  0
 75 76  1  0
 77 78  1  0
 78 79  1  0
 79 80  2  0
 79 81  1  0
 81 82  1  0
 82 83  1  0
 82 85  1  1
 83 84  2  0
 83 92  1  0
 85 86  1  0
 86 87  2  0
 86 88  1  0
 87 89  1  0
 88 90  2  0
 89 91  2  0
 90 91  1  0
 92 93  1  0
 93 94  1  0
 93 96  1  1
 94 95  2  0
 94101  1  0
 96 97  1  0
 97 98  1  0
 98 99  1  0
 99100  1  0
102101  1  1
102103  1  0
102105  1  0
103104  2  0
103109  1  0
105106  1  0
105107  1  1
106108  1  0
109110  1  0
110111  1  0
110113  1  6
111112  2  0
113114  1  0
114115  1  0
114116  2  0
115117  2  0
116118  1  0
117118  1  0
M  CHG  3   5  -1  55   1 100   1
M  END
$$$$
