
     RDKit          3D

119126  0  0  0  0  0  0  0  0999 V2000
   28.1158   44.2972   13.6389 C   0  0  0  0  0  0  0  0  0  0  0  0
   26.2519   40.1811   10.8457 N   0  0  0  0  0  0  0  0  0  0  0  0
   28.8848   43.1210   13.1521 C   0  0  0  0  0  0  0  0  0  0  0  0
   26.6200   40.1839   12.2762 C   0  0  0  0  0  0  0  0  0  0  0  0
   26.9696   42.4582    4.6032 O   0  0  0  0  0  1  0  0  0  0  0  0
   26.9339   41.5632   12.7202 C   0  0  2  0  0  0  0  0  0  0  0  0
   24.8903   41.4066    5.3532 C   0  0  0  0  0  0  0  0  0  0  0  0
   23.6377   40.9487    5.0980 C   0  0  0  0  0  0  0  0  0  0  0  0
   22.8164   40.2438    6.0298 C   0  0  0  0  0  0  0  0  0  0  0  0
   23.3306   40.0102    7.2798 C   0  0  0  0  0  0  0  0  0  0  0  0
   26.6859   39.7874    8.7859 N   0  0  0  0  0  0  0  0  0  0  0  0
   25.3469   41.1416    6.6224 C   0  0  0  0  0  0  0  0  0  0  0  0
   24.5960   40.4485    7.6079 C   0  0  0  0  0  0  0  0  0  0  0  0
   25.3774   40.3059    8.8746 C   0  0  0  0  0  0  0  0  0  0  0  0
   26.7204   43.3864   14.1002 O   0  0  0  0  0  0  0  0  0  0  0  0
   28.3649   41.8737   12.8063 N   0  0  0  0  0  0  0  0  0  0  0  0
   28.1129   46.7179   13.9676 C   0  0  0  0  0  0  0  0  0  0  0  0
   25.1431   42.4008    3.2626 O   0  0  0  0  0  0  0  0  0  0  0  0
   25.1476   40.5422   10.2084 C   0  0  0  0  0  0  0  0  0  0  0  0
   15.1733   32.6607    2.4470 O   0  0  0  0  0  0  0  0  0  0  0  0
   17.9062   35.9990    4.3046 O   0  0  0  0  0  0  0  0  0  0  0  0
   16.2505   39.0711    1.7286 O   0  0  0  0  0  0  0  0  0  0  0  0
   28.8388   45.4892   13.8111 N   0  0  0  0  0  0  0  0  0  0  0  0
   26.6298   46.7426   13.9273 C   0  0  0  0  0  0  0  0  0  0  0  0
   28.7089   47.8098   14.1472 O   0  0  0  0  0  0  0  0  0  0  0  0
   30.1326   43.3143   13.0601 O   0  0  0  0  0  0  0  0  0  0  0  0
   27.1763   39.7232    9.9564 N   0  0  0  0  0  0  0  0  0  0  0  0
   19.5765   39.0808    4.7008 N   0  0  0  0  0  0  0  0  0  0  0  0
   17.2427   40.4175    4.5604 N   0  0  0  0  0  0  0  0  0  0  0  0
   15.3982   37.6819    3.3435 N   0  0  0  0  0  0  0  0  0  0  0  0
   16.1310   34.6712    3.7243 N   0  0  0  0  0  0  0  0  0  0  0  0
   16.7676   31.0906    3.0869 N   0  0  0  0  0  0  0  0  0  0  0  0
   19.6597   40.3808    4.4050 N   0  0  0  0  0  0  0  0  0  0  0  0
   20.7243   40.9225    4.8033 N   0  0  0  0  0  0  0  0  0  0  0  0
   21.4717   39.9118    5.4473 C   0  0  0  0  0  0  0  0  0  0  0  0
   20.7093   38.7780    5.3537 C   0  0  0  0  0  0  0  0  0  0  0  0
   18.4338   38.2973    4.3104 C   0  0  0  0  0  0  0  0  0  0  0  0
   17.3180   39.2610    3.8094 C   0  0  1  0  0  0  0  0  0  0  0  0
   16.3097   38.6773    2.9216 C   0  0  0  0  0  0  0  0  0  0  0  0
   15.7156   36.9971    4.6049 C   0  0  0  0  0  0  0  0  0  0  0  0
   16.6544   35.8907    4.2138 C   0  0  0  0  0  0  0  0  0  0  0  0
   17.0605   33.5694    3.5049 C   0  0  0  0  0  0  0  0  0  0  0  0
   16.2989   32.4192    2.9922 C   0  0  0  0  0  0  0  0  0  0  0  0
   25.6678   42.1070    4.3620 C   0  0  0  0  0  0  0  0  0  0  0  0
   26.2083   42.1723   13.8168 C   0  0  0  0  0  0  0  0  0  0  0  0
   25.1558   41.8967   14.6656 N   0  0  0  0  0  0  0  0  0  0  0  0
   24.5132   40.7051   15.1228 C   0  0  2  0  0  0  0  0  0  0  0  0
   23.1724   40.9384   15.7751 C   0  0  0  0  0  0  0  0  0  0  0  0
   22.5573   39.7991   15.9308 O   0  0  0  0  0  0  0  0  0  0  0  0
   25.3190   39.7031   15.8382 C   0  0  0  0  0  0  0  0  0  0  0  0
   26.7867   39.6767   15.6636 C   0  0  0  0  0  0  0  0  0  0  0  0
   27.3587   40.5830   14.6288 C   0  0  0  0  0  0  0  0  0  0  0  0
   26.6818   40.2950   13.3525 N   0  0  0  0  0  0  0  0  0  0  0  0
   27.0959   41.0021   12.1629 C   0  0  0  0  0  0  0  0  0  0  0  0
   27.4521   42.2480   12.2776 N   0  0  0  0  0  4  0  0  0  0  0  0
   27.1252   40.3656   10.9005 N   0  0  0  0  0  0  0  0  0  0  0  0
   22.5397   42.0836   16.1941 N   0  0  0  0  0  0  0  0  0  0  0  0
   22.6757   42.9383   17.3453 C   0  0  2  0  0  0  0  0  0  0  0  0
   22.6833   44.3812   17.0533 C   0  0  0  0  0  0  0  0  0  0  0  0
   23.7762   44.8487   16.5502 O   0  0  0  0  0  0  0  0  0  0  0  0
   23.8196   42.5600   18.2644 C   0  0  0  0  0  0  0  0  0  0  0  0
   24.1015   41.0664   18.0264 C   0  0  1  0  0  0  0  0  0  0  0  0
   22.8156   40.2803   17.9980 C   0  0  0  0  0  0  0  0  0  0  0  0
   24.7537   40.8728   16.6671 C   0  0  0  0  0  0  0  0  0  0  0  0
   21.6709   45.3184   17.2461 N   0  0  0  0  0  0  0  0  0  0  0  0
   20.2916   45.2791   16.8940 C   0  0  2  0  0  0  0  0  0  0  0  0
   20.0021   46.2412   15.7957 C   0  0  0  0  0  0  0  0  0  0  0  0
   20.9287   47.0206   15.3978 O   0  0  0  0  0  0  0  0  0  0  0  0
   19.4000   45.5763   18.1172 C   0  0  0  0  0  0  0  0  0  0  0  0
   18.2738   46.4442   17.7278 C   0  0  0  0  0  0  0  0  0  0  0  0
   18.4442   47.7976   17.5712 C   0  0  0  0  0  0  0  0  0  0  0  0
   17.0165   45.9478   17.4934 C   0  0  0  0  0  0  0  0  0  0  0  0
   17.4303   48.6478   17.1986 C   0  0  0  0  0  0  0  0  0  0  0  0
   15.9737   46.7707   17.1168 C   0  0  0  0  0  0  0  0  0  0  0  0
   16.1752   48.1039   16.9709 C   0  0  0  0  0  0  0  0  0  0  0  0
   15.1256   48.9671   16.5853 O   0  0  0  0  0  0  0  0  0  0  0  0
   18.7498   46.3580   15.1495 N   0  0  0  0  0  0  0  0  0  0  0  0
   17.8970   45.2451   14.7819 C   0  0  0  0  0  0  0  0  0  0  0  0
   16.6675   45.7213   14.0926 C   0  0  0  0  0  0  0  0  0  0  0  0
   16.8040   46.5090   13.1223 O   0  0  0  0  0  0  0  0  0  0  0  0
   15.3431   45.3315   14.4754 N   0  0  0  0  0  0  0  0  0  0  0  0
   14.9821   44.0211   14.8723 C   0  0  2  0  0  0  0  0  0  0  0  0
   14.4437   43.1088   13.8477 C   0  0  0  0  0  0  0  0  0  0  0  0
   14.0558   41.9888   14.4064 O   0  0  0  0  0  0  0  0  0  0  0  0
   14.2619   43.9045   16.1900 C   0  0  0  0  0  0  0  0  0  0  0  0
   12.9229   43.3361   16.1480 C   0  0  0  0  0  0  0  0  0  0  0  0
   12.5539   42.5071   17.2083 C   0  0  0  0  0  0  0  0  0  0  0  0
   12.0381   43.5678   15.1047 C   0  0  0  0  0  0  0  0  0  0  0  0
   11.3231   41.9220   17.2228 C   0  0  0  0  0  0  0  0  0  0  0  0
   10.7934   42.9823   15.1065 C   0  0  0  0  0  0  0  0  0  0  0  0
   10.4662   42.1729   16.1683 C   0  0  0  0  0  0  0  0  0  0  0  0
   14.2824   43.1992   12.4830 N   0  0  0  0  0  0  0  0  0  0  0  0
   13.3194   43.8544   11.6288 C   0  0  2  0  0  0  0  0  0  0  0  0
   13.9751   44.5872   10.5101 C   0  0  0  0  0  0  0  0  0  0  0  0
   15.0567   45.1935   10.8939 O   0  0  0  0  0  0  0  0  0  0  0  0
   12.3774   44.7391   12.3933 C   0  0  0  0  0  0  0  0  0  0  0  0
   12.9417   45.4072   13.5919 C   0  0  0  0  0  0  0  0  0  0  0  0
   14.4325   45.4196   13.5370 C   0  0  0  0  0  0  0  0  0  0  0  0
   15.0252   46.1995   14.7052 C   0  0  0  0  0  0  0  0  0  0  0  0
   16.4889   46.1336   14.6530 N   0  0  0  0  0  4  0  0  0  0  0  0
   13.5699   44.6874    9.1753 N   0  0  0  0  0  0  0  0  0  0  0  0
   13.4741   43.6990    8.1266 C   0  0  2  0  0  0  0  0  0  0  0  0
   14.6287   42.7754    8.0966 C   0  0  0  0  0  0  0  0  0  0  0  0
   14.9814   42.4811    9.3313 O   0  0  0  0  0  0  0  0  0  0  0  0
   13.2572   44.4662    6.8344 C   0  0  2  0  0  0  0  0  0  0  0  0
   14.5458   45.0542    6.3196 C   0  0  0  0  0  0  0  0  0  0  0  0
   12.3109   45.6083    7.1520 C   0  0  0  0  0  0  0  0  0  0  0  0
   15.6579   45.0980    7.3020 C   0  0  0  0  0  0  0  0  0  0  0  0
   15.3978   42.1767    7.1439 N   0  0  0  0  0  0  0  0  0  0  0  0
   15.3646   41.0406    6.2578 C   0  0  2  0  0  0  0  0  0  0  0  0
   16.7717   40.7853    5.7890 C   0  0  0  0  0  0  0  0  0  0  0  0
   17.6145   40.9712    6.7782 O   0  0  0  0  0  0  0  0  0  0  0  0
   14.3350   40.9700    5.2178 C   0  0  0  0  0  0  0  0  0  0  0  0
   14.4279   39.8503    4.2492 C   0  0  0  0  0  0  0  0  0  0  0  0
   13.4873   39.1064    3.6653 N   0  0  0  0  0  0  0  0  0  0  0  0
   15.6459   39.3481    3.7464 C   0  0  0  0  0  0  0  0  0  0  0  0
   14.0659   38.2093    2.8585 C   0  0  0  0  0  0  0  0  0  0  0  0
   15.3864   38.3549    2.9059 N   0  0  0  0  0  0  0  0  0  0  0  0
   17.8316   40.4460    3.3223 O   0  0  0  0  0  0  0  0  0  0  0  0
  3  1  1  0
  1 23  1  0
  2  4  1  0
 19  2  1  0
  2 27  1  0
 16  3  1  0
  3 26  2  0
  4  6  1  0
 44  5  1  0
  6 16  1  1
  6 45  1  0
  8  7  1  0
  7 12  2  0
  7 44  1  0
  9  8  2  0
  9 10  1  0
 35  9  1  0
 10 13  2  0
 14 11  1  0
 11 27  2  0
 13 12  1  0
 13 14  1  0
 14 19  2  0
 45 15  2  0
 23 17  1  0
 17 24  1  0
 17 25  2  0
 44 18  2  0
 43 20  2  0
 41 21  2  0
 39 22  2  0
 28 33  1  0
 28 36  1  0
 37 28  1  0
 38 29  1  0
 29111  1  0
119 29  1  0
 30 39  1  0
 40 30  1  0
 31 41  1  0
 42 31  1  0
 43 32  1  0
 33 34  2  0
 35 34  1  0
 36 35  2  0
 38 37  1  0
 38 39  1  6
 38119  1  0
 41 40  1  0
 42 43  1  0
 45 46  1  0
 46 47  1  0
 47 48  1  0
 47 50  1  1
 48 49  2  0
 48 57  1  0
 50 51  1  0
 51 52  1  0
 52 53  1  0
 53 54  1  0
 54 55  2  0
 54 56  1  0
 57 58  1  0
 58 59  1  0
 58 61  1  6
 59 60  2  0
 59 65  1  0
 61 62  1  0
 62 63  1  6
 62 64  1  0
 65 66  1  0
 66 67  1  0
 66 69  1  1
 67 68  2  0
 67 77  1  0
 69 70  1  0
 70 71  2  0
 70 72  1  0
 71 73  1  0
 72 74  2  0
 73 75  2  0
 74 75  1  0
 75 76  1  0
 77 78  1  0
 78 79  1  0
 79 80  2  0
 79 81  1  0
 81 82  1  0
 82 83  1  0
 82 85  1  1
 83 84  2  0
 83 92  1  0
 85 86  1  0
 86 87  2  0
 86 88  1  0
 87 89  1  0
 88 90  2  0
 89 91  2  0
 90 91  1  0
 92 93  1  0
 93 94  1  0
 93 96  1  1
 94 95  2  0
 94101  1  0
 96 97  1  0
 97 98  1  0
 98 99  1  0
 99100  1  0
102101  1  1
102103  1  0
102105  1  0
103104  2  0
103109  1  0
105106  1  0
105107  1  1
106108  1  0
109110  1  0
110111  1  0
110113  1  6
111112  2  0
113114  1  0
114115  1  0
114116  2  0
115117  2  0
116118  1  0
117118  1  0
M  CHG  3   5  -1  55   1 100   1
M  END
$$$$
