
     RDKit          3D

119126  0  0  0  0  0  0  0  0999 V2000
   13.3515   44.9301   16.6935 C   0  0  0  0  0  0  0  0  0  0  0  0
   14.3440   43.4999   11.3862 N   0  0  0  0  0  0  0  0  0  0  0  0
   12.5911   44.5287   15.4800 C   0  0  0  0  0  0  0  0  0  0  0  0
   14.3077   44.4960   12.4764 C   0  0  0  0  0  0  0  0  0  0  0  0
   12.7479   37.5064    8.9148 O   0  0  0  0  0  1  0  0  0  0  0  0
   14.3407   43.8144   13.7925 C   0  0  2  0  0  0  0  0  0  0  0  0
   14.6457   38.7828    8.0424 C   0  0  0  0  0  0  0  0  0  0  0  0
   15.7133   38.9002    7.2117 C   0  0  0  0  0  0  0  0  0  0  0  0
   16.5873   40.0282    7.1537 C   0  0  0  0  0  0  0  0  0  0  0  0
   16.3302   41.0752    8.0019 C   0  0  0  0  0  0  0  0  0  0  0  0
   13.4041   42.3764    9.8241 N   0  0  0  0  0  0  0  0  0  0  0  0
   14.4427   39.8639    8.8668 C   0  0  0  0  0  0  0  0  0  0  0  0
   15.2631   41.0226    8.8733 C   0  0  0  0  0  0  0  0  0  0  0  0
   14.7687   42.0233    9.8681 C   0  0  0  0  0  0  0  0  0  0  0  0
   15.1633   43.4417   15.9040 O   0  0  0  0  0  0  0  0  0  0  0  0
   13.0391   43.6922   14.4577 N   0  0  0  0  0  0  0  0  0  0  0  0
   13.7030   46.5962   18.4453 C   0  0  0  0  0  0  0  0  0  0  0  0
   14.0322   36.6855    7.2375 O   0  0  0  0  0  0  0  0  0  0  0  0
   15.3250   42.7658   10.8814 C   0  0  0  0  0  0  0  0  0  0  0  0
   21.4934   45.3429    3.8061 O   0  0  0  0  0  0  0  0  0  0  0  0
   19.7836   40.5147    2.6196 O   0  0  0  0  0  0  0  0  0  0  0  0
   22.7865   37.9536    2.0853 O   0  0  0  0  0  0  0  0  0  0  0  0
   13.0395   46.1860   17.2399 N   0  0  0  0  0  0  0  0  0  0  0  0
   14.7561   45.7544   19.0652 C   0  0  0  0  0  0  0  0  0  0  0  0
   13.4165   47.6812   19.0111 O   0  0  0  0  0  0  0  0  0  0  0  0
   11.4268   45.0205   15.4067 O   0  0  0  0  0  0  0  0  0  0  0  0
   13.1813   43.2452   10.7242 N   0  0  0  0  0  0  0  0  0  0  0  0
   19.2045   39.8548    4.5583 N   0  0  0  0  0  0  0  0  0  0  0  0
   21.6429   38.7211    4.7067 N   0  0  0  0  0  0  0  0  0  0  0  0
   21.5470   39.5365    0.9796 N   0  0  0  0  0  0  0  0  0  0  0  0
   19.9675   42.7077    1.9813 N   0  0  0  0  0  0  0  0  0  0  0  0
   21.9944   44.4792    1.7038 N   0  0  0  0  0  0  0  0  0  0  0  0
   19.2818   38.7131    5.2475 N   0  0  0  0  0  0  0  0  0  0  0  0
   18.4406   38.6282    6.1806 N   0  0  0  0  0  0  0  0  0  0  0  0
   17.6925   39.8260    6.1560 C   0  0  0  0  0  0  0  0  0  0  0  0
   18.2096   40.5584    5.1207 C   0  0  0  0  0  0  0  0  0  0  0  0
   20.0810   40.1177    3.4472 C   0  0  0  0  0  0  0  0  0  0  0  0
   21.2064   39.0415    3.4363 C   0  0  1  0  0  0  0  0  0  0  0  0
   21.8780   38.8207    2.1534 C   0  0  0  0  0  0  0  0  0  0  0  0
   21.5889   41.0028    1.0744 C   0  0  0  0  0  0  0  0  0  0  0  0
   20.4084   41.3646    1.9311 C   0  0  0  0  0  0  0  0  0  0  0  0
   20.2240   43.4645    3.2009 C   0  0  0  0  0  0  0  0  0  0  0  0
   21.2642   44.4649    2.9123 C   0  0  0  0  0  0  0  0  0  0  0  0
   13.7997   37.6157    8.0443 C   0  0  0  0  0  0  0  0  0  0  0  0
   15.3843   44.1088   14.7539 C   0  0  0  0  0  0  0  0  0  0  0  0
   16.5354   44.8621   14.8617 N   0  0  0  0  0  0  0  0  0  0  0  0
   17.0495   46.0200   14.2006 C   0  0  2  0  0  0  0  0  0  0  0  0
   18.5211   46.2611   14.4332 C   0  0  0  0  0  0  0  0  0  0  0  0
   18.9510   47.1739   13.6071 O   0  0  0  0  0  0  0  0  0  0  0  0
   16.2626   47.2625   14.2474 C   0  0  0  0  0  0  0  0  0  0  0  0
   14.7860   47.2010   14.2180 C   0  0  0  0  0  0  0  0  0  0  0  0
   14.1631   46.5155   13.0511 C   0  0  0  0  0  0  0  0  0  0  0  0
   12.7766   46.9985   12.9311 N   0  0  0  0  0  0  0  0  0  0  0  0
   12.4998   48.1349   12.0835 C   0  0  0  0  0  0  0  0  0  0  0  0
   13.4652   48.9712   11.8372 N   0  0  0  0  0  4  0  0  0  0  0  0
   11.2180   48.3405   11.5229 N   0  0  0  0  0  0  0  0  0  0  0  0
   19.4173   45.7030   15.3123 N   0  0  0  0  0  0  0  0  0  0  0  0
   19.6879   45.8833   16.7153 C   0  0  2  0  0  0  0  0  0  0  0  0
   19.8630   44.6386   17.4817 C   0  0  0  0  0  0  0  0  0  0  0  0
   18.7825   43.9863   17.7518 O   0  0  0  0  0  0  0  0  0  0  0  0
   18.7283   46.8255   17.4138 C   0  0  0  0  0  0  0  0  0  0  0  0
   17.3200   46.4841   16.8969 C   0  0  1  0  0  0  0  0  0  0  0  0
   17.2324   46.7027   15.4080 C   0  0  0  0  0  0  0  0  0  0  0  0
   17.0244   45.0120   17.1333 C   0  0  0  0  0  0  0  0  0  0  0  0
   21.0381   44.0634   17.9600 N   0  0  0  0  0  0  0  0  0  0  0  0
   22.2777   43.8074   17.3074 C   0  0  2  0  0  0  0  0  0  0  0  0
   22.4774   42.3452   17.1136 C   0  0  0  0  0  0  0  0  0  0  0  0
   21.6332   41.5349   17.6187 O   0  0  0  0  0  0  0  0  0  0  0  0
   23.4553   44.4098   18.1010 C   0  0  0  0  0  0  0  0  0  0  0  0
   23.0490   44.6743   19.4932 C   0  0  0  0  0  0  0  0  0  0  0  0
   23.8577   45.3876   20.3433 C   0  0  0  0  0  0  0  0  0  0  0  0
   21.8516   44.2370   20.0000 C   0  0  0  0  0  0  0  0  0  0  0  0
   23.5203   45.6709   21.6454 C   0  0  0  0  0  0  0  0  0  0  0  0
   21.4781   44.5031   21.3024 C   0  0  0  0  0  0  0  0  0  0  0  0
   22.3002   45.2104   22.1168 C   0  0  0  0  0  0  0  0  0  0  0  0
   21.9411   45.4972   23.4525 O   0  0  0  0  0  0  0  0  0  0  0  0
   23.5566   41.7772   16.3981 N   0  0  0  0  0  0  0  0  0  0  0  0
   24.1034   42.3027   15.1629 C   0  0  0  0  0  0  0  0  0  0  0  0
   25.2128   41.4457   14.6644 C   0  0  0  0  0  0  0  0  0  0  0  0
   25.0019   40.2106   14.5608 O   0  0  0  0  0  0  0  0  0  0  0  0
   26.5023   41.9519   14.2990 N   0  0  0  0  0  0  0  0  0  0  0  0
   26.7122   43.1626   13.5953 C   0  0  2  0  0  0  0  0  0  0  0  0
   26.8462   43.0991   12.1290 C   0  0  0  0  0  0  0  0  0  0  0  0
   27.1504   44.2829   11.6567 O   0  0  0  0  0  0  0  0  0  0  0  0
   27.6754   44.1345   14.2249 C   0  0  0  0  0  0  0  0  0  0  0  0
   29.0909   43.8738   14.0110 C   0  0  0  0  0  0  0  0  0  0  0  0
   29.8453   43.5196   15.1304 C   0  0  0  0  0  0  0  0  0  0  0  0
   29.6990   43.9872   12.7690 C   0  0  0  0  0  0  0  0  0  0  0  0
   31.1820   43.2837   15.0078 C   0  0  0  0  0  0  0  0  0  0  0  0
   31.0475   43.7531   12.6318 C   0  0  0  0  0  0  0  0  0  0  0  0
   31.7566   43.4057   13.7571 C   0  0  0  0  0  0  0  0  0  0  0  0
   26.7145   42.0873   11.2041 N   0  0  0  0  0  0  0  0  0  0  0  0
   27.5622   40.9951   10.7860 C   0  0  2  0  0  0  0  0  0  0  0  0
   26.8107   39.7129   10.6877 C   0  0  0  0  0  0  0  0  0  0  0  0
   25.9610   39.5718   11.6588 O   0  0  0  0  0  0  0  0  0  0  0  0
   28.7873   40.8545   11.6427 C   0  0  0  0  0  0  0  0  0  0  0  0
   28.6482   41.2947   13.0528 C   0  0  0  0  0  0  0  0  0  0  0  0
   27.5186   42.2585   13.1964 C   0  0  0  0  0  0  0  0  0  0  0  0
   27.5611   42.9676   14.5452 C   0  0  0  0  0  0  0  0  0  0  0  0
   26.4885   43.9648   14.6147 N   0  0  0  0  0  4  0  0  0  0  0  0
   26.9214   38.7072    9.7222 N   0  0  0  0  0  0  0  0  0  0  0  0
   26.6120   38.6955    8.3116 C   0  0  2  0  0  0  0  0  0  0  0  0
   25.3388   39.3774    7.9941 C   0  0  0  0  0  0  0  0  0  0  0  0
   25.2230   40.4528    8.7462 O   0  0  0  0  0  0  0  0  0  0  0  0
   26.6657   37.2425    7.8740 C   0  0  2  0  0  0  0  0  0  0  0  0
   25.3609   36.5377    8.1421 C   0  0  0  0  0  0  0  0  0  0  0  0
   27.7440   36.5709    8.7030 C   0  0  0  0  0  0  0  0  0  0  0  0
   24.4780   37.1981    9.1361 C   0  0  0  0  0  0  0  0  0  0  0  0
   24.2871   39.1761    7.1509 N   0  0  0  0  0  0  0  0  0  0  0  0
   23.9283   39.3853    5.7709 C   0  0  2  0  0  0  0  0  0  0  0  0
   22.4299   39.2887    5.6684 C   0  0  0  0  0  0  0  0  0  0  0  0
   21.8715   39.8622    6.7090 O   0  0  0  0  0  0  0  0  0  0  0  0
   24.6745   38.6877    4.7205 C   0  0  0  0  0  0  0  0  0  0  0  0
   24.6043   37.2061    4.7113 C   0  0  0  0  0  0  0  0  0  0  0  0
   23.7803   36.3642    4.0860 N   0  0  0  0  0  0  0  0  0  0  0  0
   25.4847   36.3753    5.4347 C   0  0  0  0  0  0  0  0  0  0  0  0
   24.1155   35.1048    4.3896 C   0  0  0  0  0  0  0  0  0  0  0  0
   25.1580   35.1085    5.2144 N   0  0  0  0  0  0  0  0  0  0  0  0
   20.8084   37.8639    4.0364 O   0  0  0  0  0  0  0  0  0  0  0  0
  3  1  1  0
  1 23  1  0
  2  4  1  0
 19  2  1  0
  2 27  1  0
 16  3  1  0
  3 26  2  0
  4  6  1  0
 44  5  1  0
  6 16  1  1
  6 45  1  0
  8  7  1  0
  7 12  2  0
  7 44  1  0
  9  8  2  0
  9 10  1  0
 35  9  1  0
 10 13  2  0
 14 11  1  0
 11 27  2  0
 13 12  1  0
 13 14  1  0
 14 19  2  0
 45 15  2  0
 23 17  1  0
 17 24  1  0
 17 25  2  0
 44 18  2  0
 43 20  2  0
 41 21  2  0
 39 22  2  0
 28 33  1  0
 28 36  1  0
 37 28  1  0
 38 29  1  0
 29111  1  0
119 29  1  0
 30 39  1  0
 40 30  1  0
 31 41  1  0
 42 31  1  0
 43 32  1  0
 33 34  2  0
 35 34  1  0
 36 35  2  0
 38 37  1  0
 38 39  1  6
 38119  1  0
 41 40  1  0
 42 43  1  0
 45 46  1  0
 46 47  1  0
 47 48  1  0
 47 50  1  1
 48 49  2  0
 48 57  1  0
 50 51  1  0
 51 52  1  0
 52 53  1  0
 53 54  1  0
 54 55  2  0
 54 56  1  0
 57 58  1  0
 58 59  1  0
 58 61  1  1
 59 60  2  0
 59 65  1  0
 61 62  1  0
 62 63  1  6
 62 64  1  0
 65 66  1  0
 66 67  1  0
 66 69  1  1
 67 68  2  0
 67 77  1  0
 69 70  1  0
 70 71  2  0
 70 72  1  0
 71 73  1  0
 72 74  2  0
 73 75  2  0
 74 75  1  0
 75 76  1  0
 77 78  1  0
 78 79  1  0
 79 80  2  0
 79 81  1  0
 81 82  1  0
 82 83  1  0
 82 85  1  1
 83 84  2  0
 83 92  1  0
 85 86  1  0
 86 87  2  0
 86 88  1  0
 87 89  1  0
 88 90  2  0
 89 91  2  0
 90 91  1  0
 92 93  1  0
 93 94  1  0
 93 96  1  1
 94 95  2  0
 94101  1  0
 96 97  1  0
 97 98  1  0
 98 99  1  0
 99100  1  0
102101  1  1
102103  1  0
102105  1  0
103104  2  0
103109  1  0
105106  1  0
105107  1  1
106108  1  0
109110  1  0
110111  1  0
110113  1  6
111112  2  0
113114  1  0
114115  1  0
114116  2  0
115117  2  0
116118  1  0
117118  1  0
M  CHG  3   5  -1  55   1 100   1
M  END
$$$$
