
     RDKit          3D

119126  0  0  0  0  0  0  0  0999 V2000
   29.9288   41.4785   14.8289 C   0  0  0  0  0  0  0  0  0  0  0  0
   27.3234   42.3036   11.4970 N   0  0  0  0  0  0  0  0  0  0  0  0
   29.9033   42.9563   14.6642 C   0  0  0  0  0  0  0  0  0  0  0  0
   27.5730   41.9596   12.9117 C   0  0  0  0  0  0  0  0  0  0  0  0
   27.8502   46.5599    6.3743 O   0  0  0  0  0  1  0  0  0  0  0  0
   27.5528   43.1847   13.7465 C   0  0  2  0  0  0  0  0  0  0  0  0
   26.1536   44.7957    6.4035 C   0  0  0  0  0  0  0  0  0  0  0  0
   25.0496   44.2111    5.8712 C   0  0  0  0  0  0  0  0  0  0  0  0
   24.3281   43.1299    6.4627 C   0  0  0  0  0  0  0  0  0  0  0  0
   24.7838   42.6424    7.6612 C   0  0  0  0  0  0  0  0  0  0  0  0
   27.9859   42.6081    9.4835 N   0  0  0  0  0  0  0  0  0  0  0  0
   26.5584   44.2627    7.6042 C   0  0  0  0  0  0  0  0  0  0  0  0
   25.8989   43.1897    8.2594 C   0  0  0  0  0  0  0  0  0  0  0  0
   26.5944   42.8317    9.5335 C   0  0  0  0  0  0  0  0  0  0  0  0
   26.8537   44.4603   15.5235 O   0  0  0  0  0  0  0  0  0  0  0  0
   28.8747   43.7120   14.1016 N   0  0  0  0  0  0  0  0  0  0  0  0
   31.6078   39.9440   15.7203 C   0  0  0  0  0  0  0  0  0  0  0  0
   26.4995   46.2123    4.5879 O   0  0  0  0  0  0  0  0  0  0  0  0
   26.2192   42.6263   10.8392 C   0  0  0  0  0  0  0  0  0  0  0  0
   17.3564   38.1641    7.1492 O   0  0  0  0  0  0  0  0  0  0  0  0
   20.1901   38.9194    3.5622 O   0  0  0  0  0  0  0  0  0  0  0  0
   17.6200   42.0930    1.7828 O   0  0  0  0  0  0  0  0  0  0  0  0
   30.6421   40.9848   15.9338 N   0  0  0  0  0  0  0  0  0  0  0  0
   31.7911   39.3312   14.3814 C   0  0  0  0  0  0  0  0  0  0  0  0
   32.3305   39.5219   16.6579 O   0  0  0  0  0  0  0  0  0  0  0  0
   30.9398   43.5472   15.0879 O   0  0  0  0  0  0  0  0  0  0  0  0
   28.3886   42.2985   10.6483 N   0  0  0  0  0  0  0  0  0  0  0  0
   21.5187   41.8316    4.4534 N   0  0  0  0  0  0  0  0  0  0  0  0
   18.9721   42.7038    4.3681 N   0  0  0  0  0  0  0  0  0  0  0  0
   18.8004   40.1369    1.5712 N   0  0  0  0  0  0  0  0  0  0  0  0
   18.2423   38.3812    4.6426 N   0  0  0  0  0  0  0  0  0  0  0  0
   17.7262   35.8667    7.1917 N   0  0  0  0  0  0  0  0  0  0  0  0
   21.3466   43.1540    4.5304 N   0  0  0  0  0  0  0  0  0  0  0  0
   22.2389   43.7416    5.1968 N   0  0  0  0  0  0  0  0  0  0  0  0
   23.1325   42.7415    5.6396 C   0  0  0  0  0  0  0  0  0  0  0  0
   22.6370   41.5643    5.1454 C   0  0  0  0  0  0  0  0  0  0  0  0
   20.6010   41.0002    3.7194 C   0  0  0  0  0  0  0  0  0  0  0  0
   19.3475   41.8477    3.3516 C   0  0  1  0  0  0  0  0  0  0  0  0
   18.5562   41.3724    2.2143 C   0  0  0  0  0  0  0  0  0  0  0  0
   18.1924   38.9483    2.1862 C   0  0  0  0  0  0  0  0  0  0  0  0
   18.9440   38.7568    3.4733 C   0  0  0  0  0  0  0  0  0  0  0  0
   18.8579   37.3923    5.5194 C   0  0  0  0  0  0  0  0  0  0  0  0
   17.9500   37.1524    6.6526 C   0  0  0  0  0  0  0  0  0  0  0  0
   26.8379   45.8819    5.7483 C   0  0  0  0  0  0  0  0  0  0  0  0
   26.6336   43.3080   14.8600 C   0  0  0  0  0  0  0  0  0  0  0  0
   25.6021   42.6122   15.4566 N   0  0  0  0  0  0  0  0  0  0  0  0
   25.1939   41.2431   15.4885 C   0  0  2  0  0  0  0  0  0  0  0  0
   23.7885   41.0298   15.9957 C   0  0  0  0  0  0  0  0  0  0  0  0
   23.4189   39.8021   15.7576 O   0  0  0  0  0  0  0  0  0  0  0  0
   26.1371   40.2412   16.0096 C   0  0  0  0  0  0  0  0  0  0  0  0
   27.5928   40.4802   15.9148 C   0  0  0  0  0  0  0  0  0  0  0  0
   28.0291   41.8730   15.6163 C   0  0  0  0  0  0  0  0  0  0  0  0
   26.8882   42.7685   15.8740 N   0  0  0  0  0  0  0  0  0  0  0  0
   27.0596   44.1922   15.6999 C   0  0  0  0  0  0  0  0  0  0  0  0
   27.9867   44.7913   16.3883 N   0  0  0  0  0  4  0  0  0  0  0  0
   26.2520   44.9267   14.8012 N   0  0  0  0  0  0  0  0  0  0  0  0
   22.8975   41.8699   16.6185 N   0  0  0  0  0  0  0  0  0  0  0  0
   22.7615   42.3651   17.9640 C   0  0  2  0  0  0  0  0  0  0  0  0
   22.4854   43.8070   18.0730 C   0  0  0  0  0  0  0  0  0  0  0  0
   23.4893   44.5907   17.8630 O   0  0  0  0  0  0  0  0  0  0  0  0
   23.8866   41.9520   18.8915 C   0  0  0  0  0  0  0  0  0  0  0  0
   25.1316   41.7472   18.0111 C   0  0  1  0  0  0  0  0  0  0  0  0
   24.7774   40.9893   16.7570 C   0  0  0  0  0  0  0  0  0  0  0  0
   25.6744   43.0936   17.5606 C   0  0  0  0  0  0  0  0  0  0  0  0
   21.2857   44.4479   18.3738 N   0  0  0  0  0  0  0  0  0  0  0  0
   19.9768   44.2619   17.8445 C   0  0  2  0  0  0  0  0  0  0  0  0
   19.5741   45.4309   17.0157 C   0  0  0  0  0  0  0  0  0  0  0  0
   20.3419   46.4470   16.9677 O   0  0  0  0  0  0  0  0  0  0  0  0
   18.9523   44.0252   18.9731 C   0  0  0  0  0  0  0  0  0  0  0  0
   17.8628   43.1535   18.4976 C   0  0  0  0  0  0  0  0  0  0  0  0
   17.0189   43.5588   17.4930 C   0  0  0  0  0  0  0  0  0  0  0  0
   17.6470   41.9034   19.0200 C   0  0  0  0  0  0  0  0  0  0  0  0
   15.9962   42.7799   17.0063 C   0  0  0  0  0  0  0  0  0  0  0  0
   16.6305   41.0923   18.5561 C   0  0  0  0  0  0  0  0  0  0  0  0
   15.8139   41.5227   17.5624 C   0  0  0  0  0  0  0  0  0  0  0  0
   14.7677   40.7119   17.0691 O   0  0  0  0  0  0  0  0  0  0  0  0
   18.3782   45.4996   16.2643 N   0  0  0  0  0  0  0  0  0  0  0  0
   17.8111   44.4049   15.5024 C   0  0  0  0  0  0  0  0  0  0  0  0
   16.5645   44.8280   14.8091 C   0  0  0  0  0  0  0  0  0  0  0  0
   16.6041   45.8737   14.1123 O   0  0  0  0  0  0  0  0  0  0  0  0
   15.3277   44.1100   14.8945 N   0  0  0  0  0  0  0  0  0  0  0  0
   15.2236   42.6980   14.8743 C   0  0  2  0  0  0  0  0  0  0  0  0
   14.9701   42.0389   13.5807 C   0  0  0  0  0  0  0  0  0  0  0  0
   14.7871   40.7542   13.7624 O   0  0  0  0  0  0  0  0  0  0  0  0
   14.4466   42.0764   16.0050 C   0  0  0  0  0  0  0  0  0  0  0  0
   13.5796   40.9603   15.6583 C   0  0  0  0  0  0  0  0  0  0  0  0
   13.7513   40.3947   14.3941 C   0  0  0  0  0  0  0  0  0  0  0  0
   12.6009   40.4724   16.5123 C   0  0  0  0  0  0  0  0  0  0  0  0
   12.9583   39.3611   13.9937 C   0  0  0  0  0  0  0  0  0  0  0  0
   11.7931   39.4306   16.1200 C   0  0  0  0  0  0  0  0  0  0  0  0
   11.9930   38.8994   14.8680 C   0  0  0  0  0  0  0  0  0  0  0  0
   14.8973   42.4890   12.2813 N   0  0  0  0  0  0  0  0  0  0  0  0
   13.8849   43.1765   11.5140 C   0  0  2  0  0  0  0  0  0  0  0  0
   14.4533   44.3080   10.7296 C   0  0  0  0  0  0  0  0  0  0  0  0
   15.3496   44.9637   11.4017 O   0  0  0  0  0  0  0  0  0  0  0  0
   12.7216   43.6156   12.3556 C   0  0  0  0  0  0  0  0  0  0  0  0
   12.9568   44.7949   13.2248 C   0  0  0  0  0  0  0  0  0  0  0  0
   14.4161   44.9932   13.4627 C   0  0  0  0  0  0  0  0  0  0  0  0
   14.6651   45.9454   14.6269 C   0  0  0  0  0  0  0  0  0  0  0  0
   14.3628   47.3199   14.2161 N   0  0  0  0  0  4  0  0  0  0  0  0
   14.1386   44.7144    9.4290 N   0  0  0  0  0  0  0  0  0  0  0  0
   14.3342   44.0713    8.1508 C   0  0  2  0  0  0  0  0  0  0  0  0
   15.6572   43.4220    8.0278 C   0  0  0  0  0  0  0  0  0  0  0  0
   15.9696   42.8525    9.1740 O   0  0  0  0  0  0  0  0  0  0  0  0
   14.0583   45.1264    7.0944 C   0  0  2  0  0  0  0  0  0  0  0  0
   15.2984   45.4498    6.3014 C   0  0  0  0  0  0  0  0  0  0  0  0
   13.6254   46.3823    7.8267 C   0  0  0  0  0  0  0  0  0  0  0  0
   16.5772   45.3095    7.0421 C   0  0  0  0  0  0  0  0  0  0  0  0
   16.6057   43.2746    7.0602 N   0  0  0  0  0  0  0  0  0  0  0  0
   16.8814   42.4570    5.9058 C   0  0  2  0  0  0  0  0  0  0  0  0
   18.3421   42.6086    5.5766 C   0  0  0  0  0  0  0  0  0  0  0  0
   19.0488   42.6507    6.6821 O   0  0  0  0  0  0  0  0  0  0  0  0
   15.9721   42.5040    4.7579 C   0  0  0  0  0  0  0  0  0  0  0  0
   15.2634   43.7831    4.5086 C   0  0  0  0  0  0  0  0  0  0  0  0
   14.9603   44.4195    3.3764 N   0  0  0  0  0  0  0  0  0  0  0  0
   14.7499   44.6068    5.5315 C   0  0  0  0  0  0  0  0  0  0  0  0
   14.3072   45.5517    3.6627 C   0  0  0  0  0  0  0  0  0  0  0  0
   14.1769   45.6689    4.9804 N   0  0  0  0  0  0  0  0  0  0  0  0
   19.6337   43.1957    3.2724 O   0  0  0  0  0  0  0  0  0  0  0  0
  3  1  1  0
  1 23  1  0
  2  4  1  0
 19  2  1  0
  2 27  1  0
 16  3  1  0
  3 26  2  0
  4  6  1  0
 44  5  1  0
  6 16  1  1
  6 45  1  0
  8  7  1  0
  7 12  2  0
  7 44  1  0
  9  8  2  0
  9 10  1  0
 35  9  1  0
 10 13  2  0
 14 11  1  0
 11 27  2  0
 13 12  1  0
 13 14  1  0
 14 19  2  0
 45 15  2  0
 23 17  1  0
 17 24  1  0
 17 25  2  0
 44 18  2  0
 43 20  2  0
 41 21  2  0
 39 22  2  0
 28 33  1  0
 28 36  1  0
 37 28  1  0
 38 29  1  0
 29111  1  0
119 29  1  0
 30 39  1  0
 40 30  1  0
 31 41  1  0
 42 31  1  0
 43 32  1  0
 33 34  2  0
 35 34  1  0
 36 35  2  0
 38 37  1  0
 38 39  1  6
 38119  1  0
 41 40  1  0
 42 43  1  0
 45 46  1  0
 46 47  1  0
 47 48  1  0
 47 50  1  1
 48 49  2  0
 48 57  1  0
 50 51  1  0
 51 52  1  0
 52 53  1  0
 53 54  1  0
 54 55  2  0
 54 56  1  0
 57 58  1  0
 58 59  1  0
 58 61  1  1
 59 60  2  0
 59 65  1  0
 61 62  1  0
 62 63  1  6
 62 64  1  0
 65 66  1  0
 66 67  1  0
 66 69  1  1
 67 68  2  0
 67 77  1  0
 69 70  1  0
 70 71  2  0
 70 72  1  0
 71 73  1  0
 72 74  2  0
 73 75  2  0
 74 75  1  0
 75 76  1  0
 77 78  1  0
 78 79  1  0
 79 80  2  0
 79 81  1  0
 81 82  1  0
 82 83  1  0
 82 85  1  1
 83 84  2  0
 83 92  1  0
 85 86  1  0
 86 87  2  0
 86 88  1  0
 87 89  1  0
 88 90  2  0
 89 91  2  0
 90 91  1  0
 92 93  1  0
 93 94  1  0
 93 96  1  1
 94 95  2  0
 94101  1  0
 96 97  1  0
 97 98  1  0
 98 99  1  0
 99100  1  0
102101  1  1
102103  1  0
102105  1  0
103104  2  0
103109  1  0
105106  1  0
105107  1  1
106108  1  0
109110  1  0
110111  1  0
110113  1  6
111112  2  0
113114  1  0
114115  1  0
114116  2  0
115117  2  0
116118  1  0
117118  1  0
M  CHG  3   5  -1  55   1 100   1
M  END
$$$$
