
     RDKit          3D

119126  0  0  0  0  0  0  0  0999 V2000
   28.7528   43.7863   13.9737 C   0  0  0  0  0  0  0  0  0  0  0  0
   26.3157   43.6231   12.1136 N   0  0  0  0  0  0  0  0  0  0  0  0
   28.0112   44.5469   15.0145 C   0  0  0  0  0  0  0  0  0  0  0  0
   26.0623   42.9635   13.4107 C   0  0  0  0  0  0  0  0  0  0  0  0
   27.9882   48.9357    6.2818 O   0  0  0  0  0  1  0  0  0  0  0  0
   25.6204   43.9618   14.4138 C   0  0  2  0  0  0  0  0  0  0  0  0
   26.8566   47.2150    7.6048 C   0  0  0  0  0  0  0  0  0  0  0  0
   26.0856   46.7589    6.5843 C   0  0  0  0  0  0  0  0  0  0  0  0
   25.3053   45.5632    6.6169 C   0  0  0  0  0  0  0  0  0  0  0  0
   25.3356   44.8160    7.7668 C   0  0  0  0  0  0  0  0  0  0  0  0
   27.6364   44.3917   10.6132 N   0  0  0  0  0  0  0  0  0  0  0  0
   26.8433   46.4225    8.7280 C   0  0  0  0  0  0  0  0  0  0  0  0
   26.0963   45.2207    8.8431 C   0  0  0  0  0  0  0  0  0  0  0  0
   26.3085   44.5842   10.1792 C   0  0  0  0  0  0  0  0  0  0  0  0
   24.2005   44.7848   16.0201 O   0  0  0  0  0  0  0  0  0  0  0  0
   26.6635   44.4053   15.3448 N   0  0  0  0  0  0  0  0  0  0  0  0
   30.8438   43.4856   12.7468 C   0  0  0  0  0  0  0  0  0  0  0  0
   27.9685   49.0317    8.5460 O   0  0  0  0  0  0  0  0  0  0  0  0
   25.5032   44.0786   11.1711 C   0  0  0  0  0  0  0  0  0  0  0  0
   25.9290   39.7048    3.0940 O   0  0  0  0  0  0  0  0  0  0  0  0
   24.5703   44.4098   -0.0570 O   0  0  0  0  0  0  0  0  0  0  0  0
   21.0260   45.6511   -0.3907 O   0  0  0  0  0  0  0  0  0  0  0  0
   30.0414   44.2494   13.6600 N   0  0  0  0  0  0  0  0  0  0  0  0
   32.2509   43.8618   12.4632 C   0  0  0  0  0  0  0  0  0  0  0  0
   30.3825   42.4732   12.1622 O   0  0  0  0  0  0  0  0  0  0  0  0
   28.7107   45.3993   15.6365 O   0  0  0  0  0  0  0  0  0  0  0  0
   27.6127   43.8248   11.7503 N   0  0  0  0  0  0  0  0  0  0  0  0
   23.5646   44.7383    3.4696 N   0  0  0  0  0  0  0  0  0  0  0  0
   21.1545   45.5821    2.6135 N   0  0  0  0  0  0  0  0  0  0  0  0
   22.1383   43.6461   -0.4771 N   0  0  0  0  0  0  0  0  0  0  0  0
   25.2377   42.6748    1.2828 N   0  0  0  0  0  0  0  0  0  0  0  0
   27.2681   40.9109    1.6213 N   0  0  0  0  0  0  0  0  0  0  0  0
   23.2499   46.0053    3.7527 N   0  0  0  0  0  0  0  0  0  0  0  0
   23.7756   46.4313    4.8146 N   0  0  0  0  0  0  0  0  0  0  0  0
   24.5370   45.3645    5.3409 C   0  0  0  0  0  0  0  0  0  0  0  0
   24.3724   44.3289    4.4600 C   0  0  0  0  0  0  0  0  0  0  0  0
   23.0636   44.0906    2.2858 C   0  0  0  0  0  0  0  0  0  0  0  0
   21.9563   44.9882    1.6588 C   0  0  1  0  0  0  0  0  0  0  0  0
   21.6855   44.7814    0.2342 C   0  0  0  0  0  0  0  0  0  0  0  0
   22.9209   42.6646    0.2878 C   0  0  0  0  0  0  0  0  0  0  0  0
   24.2647   43.3102    0.4764 C   0  0  0  0  0  0  0  0  0  0  0  0
   24.8369   41.4860    2.0259 C   0  0  0  0  0  0  0  0  0  0  0  0
   26.0356   40.6664    2.2655 C   0  0  0  0  0  0  0  0  0  0  0  0
   27.6253   48.4299    7.5019 C   0  0  0  0  0  0  0  0  0  0  0  0
   24.3502   43.8153   15.0959 C   0  0  0  0  0  0  0  0  0  0  0  0
   23.2441   42.9903   15.0971 N   0  0  0  0  0  0  0  0  0  0  0  0
   22.9862   41.6473   14.6829 C   0  0  2  0  0  0  0  0  0  0  0  0
   21.5202   41.3089   14.5638 C   0  0  0  0  0  0  0  0  0  0  0  0
   21.3832   40.1661   13.9506 O   0  0  0  0  0  0  0  0  0  0  0  0
   23.7650   40.5610   15.2982 C   0  0  0  0  0  0  0  0  0  0  0  0
   23.3564   40.0123   16.6086 C   0  0  0  0  0  0  0  0  0  0  0  0
   22.4941   40.8769   17.4620 C   0  0  0  0  0  0  0  0  0  0  0  0
   21.4891   41.5115   16.5918 N   0  0  0  0  0  0  0  0  0  0  0  0
   20.1447   40.9836   16.5706 C   0  0  0  0  0  0  0  0  0  0  0  0
   19.4644   40.9821   17.6793 N   0  0  0  0  0  4  0  0  0  0  0  0
   19.5681   40.4849   15.3796 N   0  0  0  0  0  0  0  0  0  0  0  0
   20.3868   41.9734   14.9653 N   0  0  0  0  0  0  0  0  0  0  0  0
   19.7210   42.1424   16.2311 C   0  0  2  0  0  0  0  0  0  0  0  0
   19.2868   43.5172   16.5288 C   0  0  0  0  0  0  0  0  0  0  0  0
   20.2176   44.3378   16.8842 O   0  0  0  0  0  0  0  0  0  0  0  0
   20.4629   41.5367   17.4055 C   0  0  0  0  0  0  0  0  0  0  0  0
   21.9600   41.7949   17.1624 C   0  0  1  0  0  0  0  0  0  0  0  0
   22.3789   41.2663   15.8142 C   0  0  0  0  0  0  0  0  0  0  0  0
   22.2306   43.2905   17.1406 C   0  0  0  0  0  0  0  0  0  0  0  0
   18.0046   44.0596   16.4813 N   0  0  0  0  0  0  0  0  0  0  0  0
   17.0045   43.9885   15.4700 C   0  0  2  0  0  0  0  0  0  0  0  0
   16.8225   45.3137   14.8170 C   0  0  0  0  0  0  0  0  0  0  0  0
   17.4531   46.3207   15.2781 O   0  0  0  0  0  0  0  0  0  0  0  0
   15.6660   43.4873   16.0501 C   0  0  0  0  0  0  0  0  0  0  0  0
   14.7442   44.6191   16.2557 C   0  0  0  0  0  0  0  0  0  0  0  0
   13.4248   44.5340   15.8850 C   0  0  0  0  0  0  0  0  0  0  0  0
   15.1502   45.7961   16.8318 C   0  0  0  0  0  0  0  0  0  0  0  0
   12.5228   45.5556   16.0655 C   0  0  0  0  0  0  0  0  0  0  0  0
   14.2728   46.8437   17.0301 C   0  0  0  0  0  0  0  0  0  0  0  0
   12.9754   46.7276   16.6524 C   0  0  0  0  0  0  0  0  0  0  0  0
   12.0575   47.7838   16.8453 O   0  0  0  0  0  0  0  0  0  0  0  0
   15.9838   45.5430   13.7019 N   0  0  0  0  0  0  0  0  0  0  0  0
   15.8428   44.6489   12.5699 C   0  0  0  0  0  0  0  0  0  0  0  0
   14.9018   45.2089   11.5627 C   0  0  0  0  0  0  0  0  0  0  0  0
   15.0928   46.3878   11.1700 O   0  0  0  0  0  0  0  0  0  0  0  0
   13.7947   44.4789   11.0207 N   0  0  0  0  0  0  0  0  0  0  0  0
   13.8416   43.1089   10.6656 C   0  0  2  0  0  0  0  0  0  0  0  0
   14.1435   42.7647    9.2647 C   0  0  0  0  0  0  0  0  0  0  0  0
   14.0312   41.4711    9.0886 O   0  0  0  0  0  0  0  0  0  0  0  0
   12.7684   42.2351   11.2600 C   0  0  0  0  0  0  0  0  0  0  0  0
   11.4680   42.2722   10.6079 C   0  0  0  0  0  0  0  0  0  0  0  0
   10.6060   43.3069   10.9738 C   0  0  0  0  0  0  0  0  0  0  0  0
   11.0631   41.3242    9.6792 C   0  0  0  0  0  0  0  0  0  0  0  0
    9.3633   43.3901   10.4203 C   0  0  0  0  0  0  0  0  0  0  0  0
    9.8112   41.3958    9.1141 C   0  0  0  0  0  0  0  0  0  0  0  0
    8.9911   42.4297    9.4991 C   0  0  0  0  0  0  0  0  0  0  0  0
   14.5082   43.5026    8.1607 N   0  0  0  0  0  0  0  0  0  0  0  0
   13.7856   44.3393    7.2311 C   0  0  2  0  0  0  0  0  0  0  0  0
   14.4899   45.6269    6.9774 C   0  0  0  0  0  0  0  0  0  0  0  0
   15.0106   46.1179    8.0603 O   0  0  0  0  0  0  0  0  0  0  0  0
   12.3586   44.5605    7.6424 C   0  0  0  0  0  0  0  0  0  0  0  0
   12.0755   44.4456    9.0943 C   0  0  0  0  0  0  0  0  0  0  0  0
   13.0763   45.2141    9.8901 C   0  0  0  0  0  0  0  0  0  0  0  0
   14.4089   44.4775    9.9675 C   0  0  0  0  0  0  0  0  0  0  0  0
   15.3882   45.2993   10.6851 N   0  0  0  0  0  4  0  0  0  0  0  0
   14.6353   46.3203    5.7715 N   0  0  0  0  0  0  0  0  0  0  0  0
   15.3459   45.9924    4.5578 C   0  0  2  0  0  0  0  0  0  0  0  0
   16.6781   45.4019    4.8104 C   0  0  0  0  0  0  0  0  0  0  0  0
   16.6026   44.5857    5.8417 O   0  0  0  0  0  0  0  0  0  0  0  0
   15.3755   47.2607    3.7235 C   0  0  2  0  0  0  0  0  0  0  0  0
   16.6469   48.0381    3.9475 C   0  0  0  0  0  0  0  0  0  0  0  0
   14.2110   48.1181    4.1814 C   0  0  0  0  0  0  0  0  0  0  0  0
   17.3809   47.7045    5.1940 C   0  0  0  0  0  0  0  0  0  0  0  0
   17.9242   45.4916    4.2658 N   0  0  0  0  0  0  0  0  0  0  0  0
   18.6803   44.9661    3.1571 C   0  0  2  0  0  0  0  0  0  0  0  0
   20.1384   45.2037    3.4446 C   0  0  0  0  0  0  0  0  0  0  0  0
   20.3841   44.9956    4.7173 O   0  0  0  0  0  0  0  0  0  0  0  0
   18.2540   45.2687    1.7884 C   0  0  0  0  0  0  0  0  0  0  0  0
   19.3114   45.3368    0.7503 C   0  0  0  0  0  0  0  0  0  0  0  0
   20.6151   45.6058    0.8329 N   0  0  0  0  0  0  0  0  0  0  0  0
   19.0790   45.1058   -0.6213 C   0  0  0  0  0  0  0  0  0  0  0  0
   21.1603   45.5472   -0.3878 C   0  0  0  0  0  0  0  0  0  0  0  0
   20.2230   45.2413   -1.2793 N   0  0  0  0  0  0  0  0  0  0  0  0
   22.1206   46.3206    1.9797 O   0  0  0  0  0  0  0  0  0  0  0  0
  3  1  1  0
  1 23  1  0
  2  4  1  0
 19  2  1  0
  2 27  1  0
 16  3  1  0
  3 26  2  0
  4  6  1  0
 44  5  1  0
  6 16  1  1
  6 45  1  0
  8  7  1  0
  7 12  2  0
  7 44  1  0
  9  8  2  0
  9 10  1  0
 35  9  1  0
 10 13  2  0
 14 11  1  0
 11 27  2  0
 13 12  1  0
 13 14  1  0
 14 19  2  0
 45 15  2  0
 23 17  1  0
 17 24  1  0
 17 25  2  0
 44 18  2  0
 43 20  2  0
 41 21  2  0
 39 22  2  0
 28 33  1  0
 28 36  1  0
 37 28  1  0
 38 29  1  0
 29111  1  0
119 29  1  0
 30 39  1  0
 40 30  1  0
 31 41  1  0
 42 31  1  0
 43 32  1  0
 33 34  2  0
 35 34  1  0
 36 35  2  0
 38 37  1  0
 38 39  1  6
 38119  1  0
 41 40  1  0
 42 43  1  0
 45 46  1  0
 46 47  1  0
 47 48  1  0
 47 50  1  1
 48 49  2  0
 48 57  1  0
 50 51  1  0
 51 52  1  0
 52 53  1  0
 53 54  1  0
 54 55  2  0
 54 56  1  0
 57 58  1  0
 58 59  1  0
 58 61  1  1
 59 60  2  0
 59 65  1  0
 61 62  1  0
 62 63  1  6
 62 64  1  0
 65 66  1  0
 66 67  1  0
 66 69  1  1
 67 68  2  0
 67 77  1  0
 69 70  1  0
 70 71  2  0
 70 72  1  0
 71 73  1  0
 72 74  2  0
 73 75  2  0
 74 75  1  0
 75 76  1  0
 77 78  1  0
 78 79  1  0
 79 80  2  0
 79 81  1  0
 81 82  1  0
 82 83  1  0
 82 85  1  6
 83 84  2  0
 83 92  1  0
 85 86  1  0
 86 87  2  0
 86 88  1  0
 87 89  1  0
 88 90  2  0
 89 91  2  0
 90 91  1  0
 92 93  1  0
 93 94  1  0
 93 96  1  1
 94 95  2  0
 94101  1  0
 96 97  1  0
 97 98  1  0
 98 99  1  0
 99100  1  0
102101  1  1
102103  1  0
102105  1  0
103104  2  0
103109  1  0
105106  1  0
105107  1  1
106108  1  0
109110  1  0
110111  1  0
110113  1  6
111112  2  0
113114  1  0
114115  1  0
114116  2  0
115117  2  0
116118  1  0
117118  1  0
M  CHG  3   5  -1  55   1 100   1
M  END
$$$$
