
     RDKit          3D

119126  0  0  0  0  0  0  0  0999 V2000
   27.7594   42.6456   17.7495 C   0  0  0  0  0  0  0  0  0  0  0  0
   24.2771   42.5187   16.4361 N   0  0  0  0  0  0  0  0  0  0  0  0
   27.7524   41.1856   17.4662 C   0  0  0  0  0  0  0  0  0  0  0  0
   25.6614   42.5573   15.9224 C   0  0  0  0  0  0  0  0  0  0  0  0
   19.3502   39.6788   19.9995 O   0  0  0  0  0  1  0  0  0  0  0  0
   26.1036   41.1941   15.5426 C   0  0  2  0  0  0  0  0  0  0  0  0
   18.9013   41.1706   18.1115 C   0  0  0  0  0  0  0  0  0  0  0  0
   18.0185   41.9175   17.3997 C   0  0  0  0  0  0  0  0  0  0  0  0
   18.3736   42.9022   16.4281 C   0  0  0  0  0  0  0  0  0  0  0  0
   19.7089   43.1113   16.1943 C   0  0  0  0  0  0  0  0  0  0  0  0
   22.8554   42.5810   18.0364 N   0  0  0  0  0  0  0  0  0  0  0  0
   20.2223   41.4270   17.8305 C   0  0  0  0  0  0  0  0  0  0  0  0
   20.6602   42.3870   16.8806 C   0  0  0  0  0  0  0  0  0  0  0  0
   22.1533   42.4395   16.8216 C   0  0  0  0  0  0  0  0  0  0  0  0
   26.9865   39.6361   14.1049 O   0  0  0  0  0  0  0  0  0  0  0  0
   26.9585   40.5249   16.5289 N   0  0  0  0  0  0  0  0  0  0  0  0
   27.8480   44.4154   19.4311 C   0  0  0  0  0  0  0  0  0  0  0  0
   17.2794   39.8150   19.0886 O   0  0  0  0  0  0  0  0  0  0  0  0
   23.1041   42.4035   15.8305 C   0  0  0  0  0  0  0  0  0  0  0  0
   11.4319   50.2328   16.6386 O   0  0  0  0  0  0  0  0  0  0  0  0
   10.5711   45.7206   17.9996 O   0  0  0  0  0  0  0  0  0  0  0  0
   11.8249   46.0821   12.3547 O   0  0  0  0  0  0  0  0  0  0  0  0
   27.9060   43.0208   19.0952 N   0  0  0  0  0  0  0  0  0  0  0  0
   27.7702   45.4556   18.3757 C   0  0  0  0  0  0  0  0  0  0  0  0
   27.8573   44.7995   20.6278 O   0  0  0  0  0  0  0  0  0  0  0  0
   28.5611   40.5129   18.1709 O   0  0  0  0  0  0  0  0  0  0  0  0
   24.0997   42.6261   17.7822 N   0  0  0  0  0  0  0  0  0  0  0  0
   15.5383   44.7484   14.9555 N   0  0  0  0  0  0  0  0  0  0  0  0
   14.0103   44.0719   12.8434 N   0  0  0  0  0  0  0  0  0  0  0  0
   11.5104   46.2719   14.6195 N   0  0  0  0  0  0  0  0  0  0  0  0
   11.0474   47.6138   16.7996 N   0  0  0  0  0  0  0  0  0  0  0  0
    9.9161   50.6981   18.3424 N   0  0  0  0  0  0  0  0  0  0  0  0
   15.2475   43.4506   14.8311 N   0  0  0  0  0  0  0  0  0  0  0  0
   16.1360   42.6872   15.2929 N   0  0  0  0  0  0  0  0  0  0  0  0
   17.1604   43.5209   15.7931 C   0  0  0  0  0  0  0  0  0  0  0  0
   16.7359   44.8017   15.5588 C   0  0  0  0  0  0  0  0  0  0  0  0
   14.6298   45.7653   14.4943 C   0  0  0  0  0  0  0  0  0  0  0  0
   13.5187   45.0883   13.6387 C   0  0  1  0  0  0  0  0  0  0  0  0
   12.2623   45.8295   13.5065 C   0  0  0  0  0  0  0  0  0  0  0  0
   11.4248   45.3480   15.7596 C   0  0  0  0  0  0  0  0  0  0  0  0
   10.9898   46.2051   16.9147 C   0  0  0  0  0  0  0  0  0  0  0  0
   10.9329   48.4030   18.0203 C   0  0  0  0  0  0  0  0  0  0  0  0
   10.7672   49.8155   17.6419 C   0  0  0  0  0  0  0  0  0  0  0  0
   18.4731   40.1961   19.0835 C   0  0  0  0  0  0  0  0  0  0  0  0
   26.5528   40.9091   14.1946 C   0  0  0  0  0  0  0  0  0  0  0  0
   26.6780   41.5352   12.9713 N   0  0  0  0  0  0  0  0  0  0  0  0
   26.7784   42.8932   12.5382 C   0  0  2  0  0  0  0  0  0  0  0  0
   26.5425   43.0887   11.0604 C   0  0  0  0  0  0  0  0  0  0  0  0
   26.4067   44.3599   10.8032 O   0  0  0  0  0  0  0  0  0  0  0  0
   27.8940   43.7100   13.0416 C   0  0  0  0  0  0  0  0  0  0  0  0
   28.9517   43.0857   13.8642 C   0  0  0  0  0  0  0  0  0  0  0  0
   28.7284   41.6766   14.2932 C   0  0  0  0  0  0  0  0  0  0  0  0
   27.2848   41.3991   14.1977 N   0  0  0  0  0  0  0  0  0  0  0  0
   26.7144   40.3566   15.0189 C   0  0  0  0  0  0  0  0  0  0  0  0
   25.4394   40.1190   14.9179 N   0  0  0  0  0  4  0  0  0  0  0  0
   27.5121   39.6006   15.9087 N   0  0  0  0  0  0  0  0  0  0  0  0
   26.4476   42.1988   10.0180 N   0  0  0  0  0  0  0  0  0  0  0  0
   27.4094   41.4547    9.2464 C   0  0  2  0  0  0  0  0  0  0  0  0
   27.0688   40.0403    9.0217 C   0  0  0  0  0  0  0  0  0  0  0  0
   27.2369   39.2529   10.0306 O   0  0  0  0  0  0  0  0  0  0  0  0
   28.8379   41.6033    9.7299 C   0  0  0  0  0  0  0  0  0  0  0  0
   29.6960   41.8980    8.4873 C   0  0  1  0  0  0  0  0  0  0  0  0
   29.2208   41.0876    7.3083 C   0  0  0  0  0  0  0  0  0  0  0  0
   29.5501   43.3584    8.0917 C   0  0  0  0  0  0  0  0  0  0  0  0
   26.5888   39.4286    7.8659 N   0  0  0  0  0  0  0  0  0  0  0  0
   25.5246   39.7982    6.9948 C   0  0  2  0  0  0  0  0  0  0  0  0
   24.3878   38.8454    7.1204 C   0  0  0  0  0  0  0  0  0  0  0  0
   24.5261   37.8132    7.8551 O   0  0  0  0  0  0  0  0  0  0  0  0
   26.0069   39.8687    5.5313 C   0  0  0  0  0  0  0  0  0  0  0  0
   26.6594   41.1648    5.2718 C   0  0  0  0  0  0  0  0  0  0  0  0
   26.0007   42.1682    4.6048 C   0  0  0  0  0  0  0  0  0  0  0  0
   27.9380   41.4351    5.6892 C   0  0  0  0  0  0  0  0  0  0  0  0
   26.5599   43.3974    4.3482 C   0  0  0  0  0  0  0  0  0  0  0  0
   28.5324   42.6583    5.4505 C   0  0  0  0  0  0  0  0  0  0  0  0
   27.8544   43.6286    4.7884 C   0  0  0  0  0  0  0  0  0  0  0  0
   28.4392   44.8887    4.5328 O   0  0  0  0  0  0  0  0  0  0  0  0
   23.1418   39.0029    6.4708 N   0  0  0  0  0  0  0  0  0  0  0  0
   22.4395   40.2610    6.3135 C   0  0  0  0  0  0  0  0  0  0  0  0
   21.1447   40.0636    5.6076 C   0  0  0  0  0  0  0  0  0  0  0  0
   20.3661   39.1774    6.0425 O   0  0  0  0  0  0  0  0  0  0  0  0
   20.7415   40.8261    4.4637 N   0  0  0  0  0  0  0  0  0  0  0  0
   20.9597   42.2175    4.3171 C   0  0  2  0  0  0  0  0  0  0  0  0
   19.8794   43.1359    4.7188 C   0  0  0  0  0  0  0  0  0  0  0  0
   20.2017   44.3674    4.4085 O   0  0  0  0  0  0  0  0  0  0  0  0
   21.6465   42.6486    3.0478 C   0  0  0  0  0  0  0  0  0  0  0  0
   21.2783   43.9553    2.5240 C   0  0  0  0  0  0  0  0  0  0  0  0
   21.8897   45.0660    3.1072 C   0  0  0  0  0  0  0  0  0  0  0  0
   20.3476   44.1257    1.5090 C   0  0  0  0  0  0  0  0  0  0  0  0
   21.5749   46.3221    2.6820 C   0  0  0  0  0  0  0  0  0  0  0  0
   20.0200   45.3879    1.0717 C   0  0  0  0  0  0  0  0  0  0  0  0
   20.6439   46.4568    1.6700 C   0  0  0  0  0  0  0  0  0  0  0  0
   18.6590   42.9594    5.3321 N   0  0  0  0  0  0  0  0  0  0  0  0
   17.3658   42.5034    4.8781 C   0  0  2  0  0  0  0  0  0  0  0  0
   16.7616   41.5178    5.8172 C   0  0  0  0  0  0  0  0  0  0  0  0
   17.6431   40.6864    6.2828 O   0  0  0  0  0  0  0  0  0  0  0  0
   17.3997   41.9791    3.4715 C   0  0  0  0  0  0  0  0  0  0  0  0
   18.5568   41.1165    3.1272 C   0  0  0  0  0  0  0  0  0  0  0  0
   19.4535   40.9401    4.3063 C   0  0  0  0  0  0  0  0  0  0  0  0
   20.2433   42.2108    4.5990 C   0  0  0  0  0  0  0  0  0  0  0  0
   21.3570   42.3308    3.6532 N   0  0  0  0  0  4  0  0  0  0  0  0
   15.4277   41.3994    6.2202 N   0  0  0  0  0  0  0  0  0  0  0  0
   14.5825   42.2709    7.0025 C   0  0  2  0  0  0  0  0  0  0  0  0
   15.2756   42.8476    8.1747 C   0  0  0  0  0  0  0  0  0  0  0  0
   16.5118   43.1563    7.8396 O   0  0  0  0  0  0  0  0  0  0  0  0
   13.3413   41.4670    7.3467 C   0  0  2  0  0  0  0  0  0  0  0  0
   12.9219   41.6865    8.7775 C   0  0  0  0  0  0  0  0  0  0  0  0
   13.7025   40.0033    7.1800 C   0  0  0  0  0  0  0  0  0  0  0  0
   13.9678   42.2577    9.6626 C   0  0  0  0  0  0  0  0  0  0  0  0
   14.9686   43.1252    9.4733 N   0  0  0  0  0  0  0  0  0  0  0  0
   14.3032   44.1376   10.2537 C   0  0  2  0  0  0  0  0  0  0  0  0
   14.7291   43.9636   11.6867 C   0  0  0  0  0  0  0  0  0  0  0  0
   16.0046   43.6577   11.7413 O   0  0  0  0  0  0  0  0  0  0  0  0
   12.8723   44.3775   10.0500 C   0  0  0  0  0  0  0  0  0  0  0  0
   12.0080   43.1876    9.8563 C   0  0  0  0  0  0  0  0  0  0  0  0
   11.3548   42.7346    8.7854 N   0  0  0  0  0  0  0  0  0  0  0  0
   11.7128   42.2592   10.8759 C   0  0  0  0  0  0  0  0  0  0  0  0
   10.7022   41.6106    9.1041 C   0  0  0  0  0  0  0  0  0  0  0  0
   10.9196   41.3173   10.3822 N   0  0  0  0  0  0  0  0  0  0  0  0
   13.3215   43.7680   13.9895 O   0  0  0  0  0  0  0  0  0  0  0  0
  3  1  1  0
  1 23  1  0
  2  4  1  0
 19  2  1  0
  2 27  1  0
 16  3  1  0
  3 26  2  0
  4  6  1  0
 44  5  1  0
  6 16  1  1
  6 45  1  0
  8  7  1  0
  7 12  2  0
  7 44  1  0
  9  8  2  0
  9 10  1  0
 35  9  1  0
 10 13  2  0
 14 11  1  0
 11 27  2  0
 13 12  1  0
 13 14  1  0
 14 19  2  0
 45 15  2  0
 23 17  1  0
 17 24  1  0
 17 25  2  0
 44 18  2  0
 43 20  2  0
 41 21  2  0
 39 22  2  0
 28 33  1  0
 28 36  1  0
 37 28  1  0
 38 29  1  0
 29111  1  0
119 29  1  0
 30 39  1  0
 40 30  1  0
 31 41  1  0
 42 31  1  0
 43 32  1  0
 33 34  2  0
 35 34  1  0
 36 35  2  0
 38 37  1  0
 38 39  1  6
 38119  1  0
 41 40  1  0
 42 43  1  0
 45 46  1  0
 46 47  1  0
 47 48  1  0
 47 50  1  6
 48 49  2  0
 48 57  1  0
 50 51  1  0
 51 52  1  0
 52 53  1  0
 53 54  1  0
 54 55  2  0
 54 56  1  0
 57 58  1  0
 58 59  1  0
 58 61  1  1
 59 60  2  0
 59 65  1  0
 61 62  1  0
 62 63  1  6
 62 64  1  0
 65 66  1  0
 66 67  1  0
 66 69  1  6
 67 68  2  0
 67 77  1  0
 69 70  1  0
 70 71  2  0
 70 72  1  0
 71 73  1  0
 72 74  2  0
 73 75  2  0
 74 75  1  0
 75 76  1  0
 77 78  1  0
 78 79  1  0
 79 80  2  0
 79 81  1  0
 81 82  1  0
 82 83  1  0
 82 85  1  6
 83 84  2  0
 83 92  1  0
 85 86  1  0
 86 87  2  0
 86 88  1  0
 87 89  1  0
 88 90  2  0
 89 91  2  0
 90 91  1  0
 92 93  1  0
 93 94  1  0
 93 96  1  6
 94 95  2  0
 94101  1  0
 96 97  1  0
 97 98  1  0
 98 99  1  0
 99100  1  0
102101  1  1
102103  1  0
102105  1  0
103104  2  0
103109  1  0
105106  1  0
105107  1  1
106108  1  0
109110  1  0
110111  1  0
110113  1  1
111112  2  0
113114  1  0
114115  1  0
114116  2  0
115117  2  0
116118  1  0
117118  1  0
M  CHG  3   5  -1  55   1 100   1
M  END
$$$$
