
     RDKit          3D

119126  0  0  0  0  0  0  0  0999 V2000
   30.0995   41.8823   13.2654 C   0  0  0  0  0  0  0  0  0  0  0  0
   24.9582   41.8571   14.5731 N   0  0  0  0  0  0  0  0  0  0  0  0
   29.2328   41.0052   14.0969 C   0  0  0  0  0  0  0  0  0  0  0  0
   26.2660   42.3786   14.1264 C   0  0  0  0  0  0  0  0  0  0  0  0
   18.7113   36.8849   15.7567 O   0  0  0  0  0  1  0  0  0  0  0  0
   26.9042   41.4227   13.1899 C   0  0  2  0  0  0  0  0  0  0  0  0
   20.0604   38.9109   15.4979 C   0  0  0  0  0  0  0  0  0  0  0  0
   19.0040   39.7042   15.1837 C   0  0  0  0  0  0  0  0  0  0  0  0
   19.0988   41.0578   14.7382 C   0  0  0  0  0  0  0  0  0  0  0  0
   20.3527   41.6007   14.6178 C   0  0  0  0  0  0  0  0  0  0  0  0
   23.6886   40.9529   16.0417 N   0  0  0  0  0  0  0  0  0  0  0  0
   21.2880   39.5129   15.3556 C   0  0  0  0  0  0  0  0  0  0  0  0
   21.4702   40.8515   14.9189 C   0  0  0  0  0  0  0  0  0  0  0  0
   22.9210   41.2117   14.8874 C   0  0  0  0  0  0  0  0  0  0  0  0
   27.9187   40.8323   11.2160 O   0  0  0  0  0  0  0  0  0  0  0  0
   27.9430   40.5752   13.7850 N   0  0  0  0  0  0  0  0  0  0  0  0
   31.9786   41.9795   11.7073 C   0  0  0  0  0  0  0  0  0  0  0  0
   20.8414   36.9728   16.5256 O   0  0  0  0  0  0  0  0  0  0  0  0
   23.7758   41.7876   13.9789 C   0  0  0  0  0  0  0  0  0  0  0  0
   14.8478   48.0015   19.4565 O   0  0  0  0  0  0  0  0  0  0  0  0
   13.8261   45.9543   15.6564 O   0  0  0  0  0  0  0  0  0  0  0  0
   11.4616   43.3806   12.5594 O   0  0  0  0  0  0  0  0  0  0  0  0
   30.9053   41.2407   12.3103 N   0  0  0  0  0  0  0  0  0  0  0  0
   32.1401   43.4342   11.9518 C   0  0  0  0  0  0  0  0  0  0  0  0
   32.8167   41.4184   10.9575 O   0  0  0  0  0  0  0  0  0  0  0  0
   29.7563   40.6379   15.1896 O   0  0  0  0  0  0  0  0  0  0  0  0
   24.8799   41.3421   15.8315 N   0  0  0  0  0  0  0  0  0  0  0  0
   15.8711   42.7696   14.2204 N   0  0  0  0  0  0  0  0  0  0  0  0
   14.3098   42.7799   12.0260 N   0  0  0  0  0  0  0  0  0  0  0  0
   11.9649   44.5156   14.4889 N   0  0  0  0  0  0  0  0  0  0  0  0
   13.3773   45.2370   17.7859 N   0  0  0  0  0  0  0  0  0  0  0  0
   12.7055   47.7346   18.5871 N   0  0  0  0  0  0  0  0  0  0  0  0
   15.8006   41.6206   13.5429 N   0  0  0  0  0  0  0  0  0  0  0  0
   16.8441   40.9207   13.6249 N   0  0  0  0  0  0  0  0  0  0  0  0
   17.7470   41.6412   14.4376 C   0  0  0  0  0  0  0  0  0  0  0  0
   17.0882   42.7903   14.7855 C   0  0  0  0  0  0  0  0  0  0  0  0
   14.7641   43.6891   14.2495 C   0  0  0  0  0  0  0  0  0  0  0  0
   13.7187   43.2423   13.1853 C   0  0  1  0  0  0  0  0  0  0  0  0
   12.3460   43.7104   13.3906 C   0  0  0  0  0  0  0  0  0  0  0  0
   12.3556   44.0319   15.8208 C   0  0  0  0  0  0  0  0  0  0  0  0
   13.2224   45.1223   16.3847 C   0  0  0  0  0  0  0  0  0  0  0  0
   14.5183   45.9945   18.2862 C   0  0  0  0  0  0  0  0  0  0  0  0
   14.0269   47.2838   18.7981 C   0  0  0  0  0  0  0  0  0  0  0  0
   19.8922   37.5520   15.9481 C   0  0  0  0  0  0  0  0  0  0  0  0
   27.2797   41.8342   11.8521 C   0  0  0  0  0  0  0  0  0  0  0  0
   27.1898   42.9344   11.0240 N   0  0  0  0  0  0  0  0  0  0  0  0
   27.0157   44.3382   11.2262 C   0  0  2  0  0  0  0  0  0  0  0  0
   26.6246   45.0971    9.9817 C   0  0  0  0  0  0  0  0  0  0  0  0
   26.2487   46.3034   10.3046 O   0  0  0  0  0  0  0  0  0  0  0  0
   28.0113   45.0599   12.0344 C   0  0  0  0  0  0  0  0  0  0  0  0
   27.9621   44.9781   13.5095 C   0  0  0  0  0  0  0  0  0  0  0  0
   27.0122   43.9931   14.0986 C   0  0  0  0  0  0  0  0  0  0  0  0
   25.8091   44.7271   14.5276 N   0  0  0  0  0  0  0  0  0  0  0  0
   24.7812   44.0238   15.2593 C   0  0  0  0  0  0  0  0  0  0  0  0
   24.5611   42.7750   14.9689 N   0  0  0  0  0  4  0  0  0  0  0  0
   24.0310   44.6628   16.2735 N   0  0  0  0  0  0  0  0  0  0  0  0
   26.5973   44.7386    8.6557 N   0  0  0  0  0  0  0  0  0  0  0  0
   27.6045   44.5975    7.6360 C   0  0  2  0  0  0  0  0  0  0  0  0
   27.4968   43.3787    6.8175 C   0  0  0  0  0  0  0  0  0  0  0  0
   27.8843   42.2845    7.3820 O   0  0  0  0  0  0  0  0  0  0  0  0
   29.0214   44.7982    8.1347 C   0  0  0  0  0  0  0  0  0  0  0  0
   29.1249   44.0581    9.4796 C   0  0  1  0  0  0  0  0  0  0  0  0
   27.8396   44.1855   10.2570 C   0  0  0  0  0  0  0  0  0  0  0  0
   29.3356   42.5723    9.2381 C   0  0  0  0  0  0  0  0  0  0  0  0
   27.0338   43.2400    5.5110 N   0  0  0  0  0  0  0  0  0  0  0  0
   25.8513   43.7330    4.8891 C   0  0  2  0  0  0  0  0  0  0  0  0
   24.9122   42.6182    4.5878 C   0  0  0  0  0  0  0  0  0  0  0  0
   25.2896   41.4193    4.7989 O   0  0  0  0  0  0  0  0  0  0  0  0
   26.1878   44.5144    3.6023 C   0  0  0  0  0  0  0  0  0  0  0  0
   25.1257   45.4934    3.3084 C   0  0  0  0  0  0  0  0  0  0  0  0
   25.2933   46.4498    2.3374 C   0  0  0  0  0  0  0  0  0  0  0  0
   23.9259   45.4910    3.9736 C   0  0  0  0  0  0  0  0  0  0  0  0
   24.3305   47.3772    2.0174 C   0  0  0  0  0  0  0  0  0  0  0  0
   22.9348   46.4061    3.6790 C   0  0  0  0  0  0  0  0  0  0  0  0
   23.1321   47.3384    2.7140 C   0  0  0  0  0  0  0  0  0  0  0  0
   22.1339   48.2848    2.3927 O   0  0  0  0  0  0  0  0  0  0  0  0
   23.6070   42.7942    4.0729 N   0  0  0  0  0  0  0  0  0  0  0  0
   22.6861   43.8365    4.4805 C   0  0  0  0  0  0  0  0  0  0  0  0
   21.3900   43.7137    3.7603 C   0  0  0  0  0  0  0  0  0  0  0  0
   20.8170   42.5947    3.7660 O   0  0  0  0  0  0  0  0  0  0  0  0
   20.7648   44.7983    3.0636 N   0  0  0  0  0  0  0  0  0  0  0  0
   20.7248   46.1318    3.5381 C   0  0  2  0  0  0  0  0  0  0  0  0
   19.5395   46.5621    4.3010 C   0  0  0  0  0  0  0  0  0  0  0  0
   19.6156   47.8447    4.5583 O   0  0  0  0  0  0  0  0  0  0  0  0
   21.2157   47.1880    2.5831 C   0  0  0  0  0  0  0  0  0  0  0  0
   22.0194   48.2568    3.1569 C   0  0  0  0  0  0  0  0  0  0  0  0
   23.2460   48.5235    2.5470 C   0  0  0  0  0  0  0  0  0  0  0  0
   21.6249   48.9803    4.2733 C   0  0  0  0  0  0  0  0  0  0  0  0
   24.0608   49.4956    3.0456 C   0  0  0  0  0  0  0  0  0  0  0  0
   22.4386   49.9630    4.7873 C   0  0  0  0  0  0  0  0  0  0  0  0
   23.6385   50.1970    4.1587 C   0  0  0  0  0  0  0  0  0  0  0  0
   18.4250   45.9081    4.7770 N   0  0  0  0  0  0  0  0  0  0  0  0
   17.1967   45.4496    4.1707 C   0  0  2  0  0  0  0  0  0  0  0  0
   16.8550   44.0608    4.5867 C   0  0  0  0  0  0  0  0  0  0  0  0
   17.9038   43.2980    4.6425 O   0  0  0  0  0  0  0  0  0  0  0  0
   17.2014   45.5946    2.6763 C   0  0  0  0  0  0  0  0  0  0  0  0
   17.9344   44.5465    1.9240 C   0  0  0  0  0  0  0  0  0  0  0  0
   18.2163   43.3696    2.7963 C   0  0  0  0  0  0  0  0  0  0  0  0
   17.0513   42.3862    2.7963 C   0  0  0  0  0  0  0  0  0  0  0  0
   17.4476   41.1489    3.4757 N   0  0  0  0  0  4  0  0  0  0  0  0
   15.6011   43.5260    4.8990 N   0  0  0  0  0  0  0  0  0  0  0  0
   14.6870   43.7978    5.9837 C   0  0  2  0  0  0  0  0  0  0  0  0
   15.3667   43.9397    7.2894 C   0  0  0  0  0  0  0  0  0  0  0  0
   16.4974   44.5946    7.1214 O   0  0  0  0  0  0  0  0  0  0  0  0
   13.6381   42.7007    5.9441 C   0  0  2  0  0  0  0  0  0  0  0  0
   13.4522   42.0669    7.2987 C   0  0  0  0  0  0  0  0  0  0  0  0
   14.1476   41.6364    4.9909 C   0  0  0  0  0  0  0  0  0  0  0  0
   14.6728   42.0061    8.1414 C   0  0  0  0  0  0  0  0  0  0  0  0
   15.1277   43.5703    8.5794 N   0  0  0  0  0  0  0  0  0  0  0  0
   14.3655   44.0019    9.7238 C   0  0  2  0  0  0  0  0  0  0  0  0
   14.9355   43.3178   10.9371 C   0  0  0  0  0  0  0  0  0  0  0  0
   16.2446   43.2710   10.8518 O   0  0  0  0  0  0  0  0  0  0  0  0
   12.9026   44.0242    9.6463 C   0  0  0  0  0  0  0  0  0  0  0  0
   12.1869   44.8855   10.6191 C   0  0  0  0  0  0  0  0  0  0  0  0
   10.9119   45.2710   10.6875 N   0  0  0  0  0  0  0  0  0  0  0  0
   12.8050   45.4912   11.7325 C   0  0  0  0  0  0  0  0  0  0  0  0
   10.7403   46.0548   11.7585 C   0  0  0  0  0  0  0  0  0  0  0  0
   11.8967   46.1911   12.3997 N   0  0  0  0  0  0  0  0  0  0  0  0
   13.7842   41.8883   12.9255 O   0  0  0  0  0  0  0  0  0  0  0  0
  3  1  1  0
  1 23  1  0
  2  4  1  0
 19  2  1  0
  2 27  1  0
 16  3  1  0
  3 26  2  0
  4  6  1  0
 44  5  1  0
  6 16  1  1
  6 45  1  0
  8  7  1  0
  7 12  2  0
  7 44  1  0
  9  8  2  0
  9 10  1  0
 35  9  1  0
 10 13  2  0
 14 11  1  0
 11 27  2  0
 13 12  1  0
 13 14  1  0
 14 19  2  0
 45 15  2  0
 23 17  1  0
 17 24  1  0
 17 25  2  0
 44 18  2  0
 43 20  2  0
 41 21  2  0
 39 22  2  0
 28 33  1  0
 28 36  1  0
 37 28  1  0
 38 29  1  0
 29111  1  0
119 29  1  0
 30 39  1  0
 40 30  1  0
 31 41  1  0
 42 31  1  0
 43 32  1  0
 33 34  2  0
 35 34  1  0
 36 35  2  0
 38 37  1  0
 38 39  1  6
 38119  1  0
 41 40  1  0
 42 43  1  0
 45 46  1  0
 46 47  1  0
 47 48  1  0
 47 50  1  6
 48 49  2  0
 48 57  1  0
 50 51  1  0
 51 52  1  0
 52 53  1  0
 53 54  1  0
 54 55  2  0
 54 56  1  0
 57 58  1  0
 58 59  1  0
 58 61  1  1
 59 60  2  0
 59 65  1  0
 61 62  1  0
 62 63  1  6
 62 64  1  0
 65 66  1  0
 66 67  1  0
 66 69  1  6
 67 68  2  0
 67 77  1  0
 69 70  1  0
 70 71  2  0
 70 72  1  0
 71 73  1  0
 72 74  2  0
 73 75  2  0
 74 75  1  0
 75 76  1  0
 77 78  1  0
 78 79  1  0
 79 80  2  0
 79 81  1  0
 81 82  1  0
 82 83  1  0
 82 85  1  6
 83 84  2  0
 83 92  1  0
 85 86  1  0
 86 87  2  0
 86 88  1  0
 87 89  1  0
 88 90  2  0
 89 91  2  0
 90 91  1  0
 92 93  1  0
 93 94  1  0
 93 96  1  6
 94 95  2  0
 94101  1  0
 96 97  1  0
 97 98  1  0
 98 99  1  0
 99100  1  0
102101  1  6
102103  1  0
102105  1  0
103104  2  0
103109  1  0
105106  1  0
105107  1  6
106108  1  0
109110  1  0
110111  1  0
110113  1  6
111112  2  0
113114  1  0
114115  1  0
114116  2  0
115117  2  0
116118  1  0
117118  1  0
M  CHG  3   5  -1  55   1 100   1
M  END
$$$$
