
     RDKit          3D

 31 34  0  0  0  0  0  0  0  0999 V2000
   87.7033  163.4063  177.8188 O   0  0  0  0  0  0  0  0  0  0  0  0
   86.3532  163.1024  177.5667 C   0  0  1  0  0  0  0  0  0  0  0  0
   86.1266  163.3569  176.1169 C   0  0  0  0  0  0  0  0  0  0  0  0
   86.7699  162.1394  175.5080 N   0  0  2  0  0  4  0  0  0  0  0  0
   86.4856  162.2306  174.0781 C   0  0  0  0  0  0  0  0  0  0  0  0
   85.0317  162.3614  173.8530 C   0  0  0  0  0  0  0  0  0  0  0  0
   84.0288  161.4194  173.9300 C   0  0  0  0  0  0  0  0  0  0  0  0
   83.9988  160.1226  174.3565 N   0  0  0  0  0  0  0  0  0  0  0  0
   82.8738  159.4195  174.3799 C   0  0  0  0  0  0  0  0  0  0  0  0
   81.7222  159.9758  173.9774 N   0  0  0  0  0  0  0  0  0  0  0  0
   81.6311  161.2169  173.5455 C   0  0  0  0  0  0  0  0  0  0  0  0
   80.4520  161.8283  173.0686 N   0  0  0  0  0  0  0  0  0  0  0  0
   82.8376  161.9702  173.5203 C   0  0  0  0  0  0  0  0  0  0  0  0
   83.0541  163.2359  173.1943 N   0  0  0  0  0  0  0  0  0  0  0  0
   84.3757  163.5141  173.3788 C   0  0  0  0  0  0  0  0  0  0  0  0
   86.1646  161.1022  176.2327 C   0  0  0  0  0  0  0  0  0  0  0  0
   86.1056  161.6147  177.6886 C   0  0  2  0  0  0  0  0  0  0  0  0
   84.7116  161.3217  178.2186 C   0  0  0  0  0  0  0  0  0  0  0  0
   84.6076  159.7224  179.0188 S   0  0  0  0  0  0  0  0  0  0  0  0
   86.2075  159.2088  179.7435 C   0  0  0  0  0  0  0  0  0  0  0  0
   87.0432  158.7935  178.5200 C   0  0  0  0  0  0  0  0  0  0  0  0
   86.9112  157.3002  178.4158 C   0  0  0  0  0  0  0  0  0  0  0  0
   87.7701  156.6020  179.3766 C   0  0  0  0  0  0  0  0  0  0  0  0
   87.3012  155.5354  180.0847 N   0  0  0  0  0  0  0  0  0  0  0  0
   88.2595  155.0830  180.8358 N   0  0  0  0  0  0  0  0  0  0  0  0
   89.3513  155.8026  180.6619 N   0  0  0  0  0  0  0  0  0  0  0  0
   89.0788  156.7448  179.7701 C   0  0  0  0  0  0  0  0  0  0  0  0
   90.6199  155.5416  181.3761 C   0  0  0  0  0  0  0  0  0  0  0  0
   91.7895  155.7072  180.4240 C   0  0  0  0  0  0  0  0  0  0  0  0
   93.0080  154.4498  178.6687 C   0  0  0  0  0  0  0  0  0  0  0  0
   92.0967  154.3432  179.8748 C   0  0  0  0  0  0  0  0  0  0  0  0
  2  1  1  6
  2  3  1  0
  2 17  1  0
  3  4  1  0
  4  5  1  6
  4 16  1  0
  5  6  1  0
  6  7  1  0
  6 15  2  0
  7  8  2  0
  7 13  1  0
  8  9  1  0
  9 10  2  0
 10 11  1  0
 11 12  1  0
 11 13  2  0
 13 14  1  0
 14 15  1  0
 16 17  1  0
 17 18  1  6
 18 19  1  0
 19 20  1  0
 20 21  1  0
 21 22  1  0
 22 23  1  0
 23 24  1  0
 23 27  2  0
 24 25  2  0
 25 26  1  0
 26 27  1  0
 26 28  1  0
 28 29  1  0
 29 31  1  0
 31 30  1  0
M  CHG  1   4   1
M  END
$$$$
