
     RDKit          3D

 31 34  0  0  0  0  0  0  0  0999 V2000
   86.9982  162.5209  178.7057 O   0  0  0  0  0  0  0  0  0  0  0  0
   85.9246  161.8662  178.0753 C   0  0  1  0  0  0  0  0  0  0  0  0
   85.3502  162.8369  177.1028 C   0  0  0  0  0  0  0  0  0  0  0  0
   86.3658  162.7668  175.9936 N   0  0  2  0  0  4  0  0  0  0  0  0
   85.8210  163.5970  174.9222 C   0  0  0  0  0  0  0  0  0  0  0  0
   85.1055  162.7587  173.9389 C   0  0  0  0  0  0  0  0  0  0  0  0
   83.7548  162.6050  173.7129 C   0  0  0  0  0  0  0  0  0  0  0  0
   82.6499  163.2445  174.1974 N   0  0  0  0  0  0  0  0  0  0  0  0
   81.4270  162.9413  173.7811 C   0  0  0  0  0  0  0  0  0  0  0  0
   81.2460  161.9832  172.8608 N   0  0  0  0  0  0  0  0  0  0  0  0
   82.2361  161.2999  172.3243 C   0  0  0  0  0  0  0  0  0  0  0  0
   82.0898  160.2529  171.3894 N   0  0  0  0  0  0  0  0  0  0  0  0
   83.5470  161.6251  172.7711 C   0  0  0  0  0  0  0  0  0  0  0  0
   84.7263  161.1594  172.3872 N   0  0  0  0  0  0  0  0  0  0  0  0
   85.7009  161.8191  173.0748 C   0  0  0  0  0  0  0  0  0  0  0  0
   86.4541  161.3845  175.7723 C   0  0  0  0  0  0  0  0  0  0  0  0
   86.4248  160.7525  177.1814 C   0  0  2  0  0  0  0  0  0  0  0  0
   85.4481  159.5888  177.1385 C   0  0  0  0  0  0  0  0  0  0  0  0
   84.9745  159.0343  178.7747 S   0  0  0  0  0  0  0  0  0  0  0  0
   86.4028  158.9548  179.9159 C   0  0  0  0  0  0  0  0  0  0  0  0
   86.3533  157.5159  180.4593 C   0  0  0  0  0  0  0  0  0  0  0  0
   87.4842  157.4054  181.4427 C   0  0  0  0  0  0  0  0  0  0  0  0
   88.7706  157.1720  180.7802 C   0  0  0  0  0  0  0  0  0  0  0  0
   89.5682  156.1308  181.1526 N   0  0  0  0  0  0  0  0  0  0  0  0
   90.6251  156.1276  180.3974 N   0  0  0  0  0  0  0  0  0  0  0  0
   90.5700  157.1241  179.5348 N   0  0  0  0  0  0  0  0  0  0  0  0
   89.4402  157.7838  179.7480 C   0  0  0  0  0  0  0  0  0  0  0  0
   91.6261  157.3937  178.5350 C   0  0  0  0  0  0  0  0  0  0  0  0
   91.0191  157.4386  177.1452 C   0  0  0  0  0  0  0  0  0  0  0  0
   92.4975  158.1802  175.2982 C   0  0  0  0  0  0  0  0  0  0  0  0
   91.6190  158.6271  176.4493 C   0  0  0  0  0  0  0  0  0  0  0  0
  2  1  1  6
  2  3  1  0
  2 17  1  0
  3  4  1  0
  4  5  1  6
  4 16  1  0
  5  6  1  0
  6  7  1  0
  6 15  2  0
  7  8  2  0
  7 13  1  0
  8  9  1  0
  9 10  2  0
 10 11  1  0
 11 12  1  0
 11 13  2  0
 13 14  1  0
 14 15  1  0
 16 17  1  0
 17 18  1  6
 18 19  1  0
 19 20  1  0
 20 21  1  0
 21 22  1  0
 22 23  1  0
 23 24  1  0
 23 27  2  0
 24 25  2  0
 25 26  1  0
 26 27  1  0
 26 28  1  0
 28 29  1  0
 29 31  1  0
 31 30  1  0
M  CHG  1   4   1
M  END
$$$$
