
     RDKit          3D

 31 34  0  0  0  0  0  0  0  0999 V2000
   87.2531  163.4654  176.1497 O   0  0  0  0  0  0  0  0  0  0  0  0
   86.6588  162.7946  177.2338 C   0  0  1  0  0  0  0  0  0  0  0  0
   85.2904  162.4069  176.7919 C   0  0  0  0  0  0  0  0  0  0  0  0
   85.5976  161.2253  175.9108 N   0  0  2  0  0  4  0  0  0  0  0  0
   84.2958  160.6866  175.5248 C   0  0  0  0  0  0  0  0  0  0  0  0
   83.6205  161.6046  174.5852 C   0  0  0  0  0  0  0  0  0  0  0  0
   83.4147  161.4978  173.2268 C   0  0  0  0  0  0  0  0  0  0  0  0
   83.6266  160.4919  172.3280 N   0  0  0  0  0  0  0  0  0  0  0  0
   83.2944  160.6145  171.0493 C   0  0  0  0  0  0  0  0  0  0  0  0
   82.7350  161.7486  170.6034 N   0  0  0  0  0  0  0  0  0  0  0  0
   82.4848  162.7842  171.3779 C   0  0  0  0  0  0  0  0  0  0  0  0
   81.9420  164.0126  170.9442 N   0  0  0  0  0  0  0  0  0  0  0  0
   82.8413  162.6524  172.7487 C   0  0  0  0  0  0  0  0  0  0  0  0
   82.6697  163.4842  173.7654 N   0  0  0  0  0  0  0  0  0  0  0  0
   83.1328  162.8878  174.9002 C   0  0  0  0  0  0  0  0  0  0  0  0
   86.4083  160.4456  176.7487 C   0  0  0  0  0  0  0  0  0  0  0  0
   87.3264  161.4573  177.4693 C   0  0  2  0  0  0  0  0  0  0  0  0
   87.3390  161.0909  178.9443 C   0  0  0  0  0  0  0  0  0  0  0  0
   88.5823  159.8609  179.3317 S   0  0  0  0  0  0  0  0  0  0  0  0
   88.5814  158.4784  178.1329 C   0  0  0  0  0  0  0  0  0  0  0  0
   89.6708  158.8751  177.1210 C   0  0  0  0  0  0  0  0  0  0  0  0
   90.3310  157.5927  176.6992 C   0  0  0  0  0  0  0  0  0  0  0  0
   91.1208  156.9971  177.7806 C   0  0  0  0  0  0  0  0  0  0  0  0
   92.4316  157.3309  177.9525 N   0  0  0  0  0  0  0  0  0  0  0  0
   92.8891  156.6941  178.9880 N   0  0  0  0  0  0  0  0  0  0  0  0
   91.9401  155.9460  179.5171 N   0  0  0  0  0  0  0  0  0  0  0  0
   90.8415  156.1122  178.7940 C   0  0  0  0  0  0  0  0  0  0  0  0
   92.1447  155.0957  180.7098 C   0  0  0  0  0  0  0  0  0  0  0  0
   93.1700  154.0198  180.4045 C   0  0  0  0  0  0  0  0  0  0  0  0
   93.3854  151.5666  180.1174 C   0  0  0  0  0  0  0  0  0  0  0  0
   92.4252  152.7165  180.3459 C   0  0  0  0  0  0  0  0  0  0  0  0
  2  1  1  6
  2  3  1  0
  2 17  1  0
  3  4  1  0
  4  5  1  1
  4 16  1  0
  5  6  1  0
  6  7  1  0
  6 15  2  0
  7  8  2  0
  7 13  1  0
  8  9  1  0
  9 10  2  0
 10 11  1  0
 11 12  1  0
 11 13  2  0
 13 14  1  0
 14 15  1  0
 16 17  1  0
 17 18  1  1
 18 19  1  0
 19 20  1  0
 20 21  1  0
 21 22  1  0
 22 23  1  0
 23 24  1  0
 23 27  2  0
 24 25  2  0
 25 26  1  0
 26 27  1  0
 26 28  1  0
 28 29  1  0
 29 31  1  0
 31 30  1  0
M  CHG  1   4   1
M  END
$$$$
