
     RDKit          3D

 31 34  0  0  0  0  0  0  0  0999 V2000
   87.2136  162.1217  178.7262 O   0  0  0  0  0  0  0  0  0  0  0  0
   86.5523  161.2403  177.8520 C   0  0  1  0  0  0  0  0  0  0  0  0
   85.3121  161.9361  177.4090 C   0  0  0  0  0  0  0  0  0  0  0  0
   85.8714  162.9063  176.4027 N   0  0  2  0  0  4  0  0  0  0  0  0
   84.7059  163.5567  175.8089 C   0  0  0  0  0  0  0  0  0  0  0  0
   84.3052  162.8575  174.5711 C   0  0  0  0  0  0  0  0  0  0  0  0
   83.3623  161.8731  174.3681 C   0  0  0  0  0  0  0  0  0  0  0  0
   82.4090  161.3155  175.1711 N   0  0  0  0  0  0  0  0  0  0  0  0
   81.5669  160.3940  174.7215 C   0  0  0  0  0  0  0  0  0  0  0  0
   81.6354  159.9819  173.4474 N   0  0  0  0  0  0  0  0  0  0  0  0
   82.5135  160.4478  172.5833 C   0  0  0  0  0  0  0  0  0  0  0  0
   82.6529  160.0107  171.2486 N   0  0  0  0  0  0  0  0  0  0  0  0
   83.4163  161.4356  173.0658 C   0  0  0  0  0  0  0  0  0  0  0  0
   84.3594  162.1196  172.4352 N   0  0  0  0  0  0  0  0  0  0  0  0
   84.9271  162.9928  173.3146 C   0  0  0  0  0  0  0  0  0  0  0  0
   86.6390  162.0626  175.5864 C   0  0  0  0  0  0  0  0  0  0  0  0
   87.3266  161.0819  176.5617 C   0  0  2  0  0  0  0  0  0  0  0  0
   87.1730  159.6838  175.9857 C   0  0  0  0  0  0  0  0  0  0  0  0
   88.7516  158.9026  175.6590 S   0  0  0  0  0  0  0  0  0  0  0  0
   89.6082  158.4090  177.1988 C   0  0  0  0  0  0  0  0  0  0  0  0
   89.1753  156.9462  177.4017 C   0  0  0  0  0  0  0  0  0  0  0  0
   89.9704  156.4374  178.5709 C   0  0  0  0  0  0  0  0  0  0  0  0
   89.1910  156.4424  179.8122 C   0  0  0  0  0  0  0  0  0  0  0  0
   87.8979  156.0103  179.8256 N   0  0  0  0  0  0  0  0  0  0  0  0
   87.4478  156.0872  181.0416 N   0  0  0  0  0  0  0  0  0  0  0  0
   88.3849  156.5540  181.8442 N   0  0  0  0  0  0  0  0  0  0  0  0
   89.4679  156.7820  181.1145 C   0  0  0  0  0  0  0  0  0  0  0  0
   88.1846  156.7606  183.2949 C   0  0  0  0  0  0  0  0  0  0  0  0
   89.0027  157.9496  183.7629 C   0  0  0  0  0  0  0  0  0  0  0  0
   87.4070  159.2001  185.1902 C   0  0  0  0  0  0  0  0  0  0  0  0
   88.0650  159.1215  183.8272 C   0  0  0  0  0  0  0  0  0  0  0  0
  2  1  1  1
  2  3  1  0
  2 17  1  0
  3  4  1  0
  4  5  1  6
  4 16  1  0
  5  6  1  0
  6  7  1  0
  6 15  2  0
  7  8  2  0
  7 13  1  0
  8  9  1  0
  9 10  2  0
 10 11  1  0
 11 12  1  0
 11 13  2  0
 13 14  1  0
 14 15  1  0
 16 17  1  0
 17 18  1  6
 18 19  1  0
 19 20  1  0
 20 21  1  0
 21 22  1  0
 22 23  1  0
 23 24  1  0
 23 27  2  0
 24 25  2  0
 25 26  1  0
 26 27  1  0
 26 28  1  0
 28 29  1  0
 29 31  1  0
 31 30  1  0
M  CHG  1   4   1
M  END
$$$$
