
     RDKit          3D

 31 34  0  0  0  0  0  0  0  0999 V2000
   56.9852  173.6540  180.2015 O   0  0  0  0  0  0  0  0  0  0  0  0
   55.9955  173.8688  181.1776 C   0  0  1  0  0  0  0  0  0  0  0  0
   56.7109  174.2370  182.4309 C   0  0  0  0  0  0  0  0  0  0  0  0
   57.0825  175.6667  182.1395 N   0  0  2  0  0  4  0  0  0  0  0  0
   57.6839  176.1653  183.3739 C   0  0  0  0  0  0  0  0  0  0  0  0
   56.6390  176.6908  184.2760 C   0  0  0  0  0  0  0  0  0  0  0  0
   56.1108  176.1609  185.4333 C   0  0  0  0  0  0  0  0  0  0  0  0
   56.4431  175.0815  186.2007 N   0  0  0  0  0  0  0  0  0  0  0  0
   55.7980  174.7968  187.3247 C   0  0  0  0  0  0  0  0  0  0  0  0
   54.7876  175.5750  187.7382 N   0  0  0  0  0  0  0  0  0  0  0  0
   54.3794  176.6402  187.0795 C   0  0  0  0  0  0  0  0  0  0  0  0
   53.2924  177.4600  187.4511 N   0  0  0  0  0  0  0  0  0  0  0  0
   55.0712  176.9449  185.8744 C   0  0  0  0  0  0  0  0  0  0  0  0
   54.9305  177.9608  185.0358 N   0  0  0  0  0  0  0  0  0  0  0  0
   55.8619  177.8431  184.0475 C   0  0  0  0  0  0  0  0  0  0  0  0
   55.8506  176.2085  181.7441 C   0  0  0  0  0  0  0  0  0  0  0  0
   55.1976  175.1167  180.8682 C   0  0  2  0  0  0  0  0  0  0  0  0
   53.7510  174.9800  181.3137 C   0  0  0  0  0  0  0  0  0  0  0  0
   53.4189  173.3945  182.0785 S   0  0  0  0  0  0  0  0  0  0  0  0
   53.2368  173.5297  183.8943 C   0  0  0  0  0  0  0  0  0  0  0  0
   51.7697  173.9549  184.0810 C   0  0  0  0  0  0  0  0  0  0  0  0
   51.0747  172.7802  184.7096 C   0  0  0  0  0  0  0  0  0  0  0  0
   51.1868  172.7900  186.1709 C   0  0  0  0  0  0  0  0  0  0  0  0
   50.6421  173.8013  186.9055 N   0  0  0  0  0  0  0  0  0  0  0  0
   50.8521  173.5590  188.1642 N   0  0  0  0  0  0  0  0  0  0  0  0
   51.5161  172.4278  188.3044 N   0  0  0  0  0  0  0  0  0  0  0  0
   51.7362  171.9334  187.0942 C   0  0  0  0  0  0  0  0  0  0  0  0
   51.9113  171.8740  189.6176 C   0  0  0  0  0  0  0  0  0  0  0  0
   52.7163  172.9035  190.3886 C   0  0  0  0  0  0  0  0  0  0  0  0
   54.8916  174.0913  190.3236 C   0  0  0  0  0  0  0  0  0  0  0  0
   53.9097  173.2423  189.5415 C   0  0  0  0  0  0  0  0  0  0  0  0
  2  1  1  6
  2  3  1  0
  2 17  1  0
  3  4  1  0
  4  5  1  1
  4 16  1  0
  5  6  1  0
  6  7  1  0
  6 15  2  0
  7  8  2  0
  7 13  1  0
  8  9  1  0
  9 10  2  0
 10 11  1  0
 11 12  1  0
 11 13  2  0
 13 14  1  0
 14 15  1  0
 16 17  1  0
 17 18  1  1
 18 19  1  0
 19 20  1  0
 20 21  1  0
 21 22  1  0
 22 23  1  0
 23 24  1  0
 23 27  2  0
 24 25  2  0
 25 26  1  0
 26 27  1  0
 26 28  1  0
 28 29  1  0
 29 31  1  0
 31 30  1  0
M  CHG  1   4   1
M  END
$$$$
