
     RDKit          3D

 31 34  0  0  0  0  0  0  0  0999 V2000
   85.8966  162.7088  178.8993 O   0  0  0  0  0  0  0  0  0  0  0  0
   85.2497  161.8299  178.0119 C   0  0  1  0  0  0  0  0  0  0  0  0
   84.8759  162.6358  176.8166 C   0  0  0  0  0  0  0  0  0  0  0  0
   86.2062  162.7514  176.1211 N   0  0  2  0  0  4  0  0  0  0  0  0
   85.9201  163.4238  174.8562 C   0  0  0  0  0  0  0  0  0  0  0  0
   85.0358  162.5864  174.0204 C   0  0  0  0  0  0  0  0  0  0  0  0
   83.6608  162.5026  173.9828 C   0  0  0  0  0  0  0  0  0  0  0  0
   82.6662  163.2267  174.5753 N   0  0  0  0  0  0  0  0  0  0  0  0
   81.3842  162.9779  174.3402 C   0  0  0  0  0  0  0  0  0  0  0  0
   81.0310  161.9925  173.5025 N   0  0  0  0  0  0  0  0  0  0  0  0
   81.9027  161.2291  172.8760 C   0  0  0  0  0  0  0  0  0  0  0  0
   81.5772  160.1523  172.0239 N   0  0  0  0  0  0  0  0  0  0  0  0
   83.2770  161.4961  173.1285 C   0  0  0  0  0  0  0  0  0  0  0  0
   84.3678  160.9453  172.6169 N   0  0  0  0  0  0  0  0  0  0  0  0
   85.4594  161.5762  173.1350 C   0  0  0  0  0  0  0  0  0  0  0  0
   86.6224  161.4128  176.0734 C   0  0  0  0  0  0  0  0  0  0  0  0
   86.2268  160.8232  177.4451 C   0  0  2  0  0  0  0  0  0  0  0  0
   85.5612  159.4810  177.1892 C   0  0  0  0  0  0  0  0  0  0  0  0
   85.6665  158.3860  178.6030 S   0  0  0  0  0  0  0  0  0  0  0  0
   87.3386  158.3791  179.3466 C   0  0  0  0  0  0  0  0  0  0  0  0
   88.1513  157.4752  178.4030 C   0  0  0  0  0  0  0  0  0  0  0  0
   89.5688  157.5267  178.8991 C   0  0  0  0  0  0  0  0  0  0  0  0
   90.0753  156.1998  179.2611 C   0  0  0  0  0  0  0  0  0  0  0  0
   90.6008  155.3716  178.3142 N   0  0  0  0  0  0  0  0  0  0  0  0
   91.0012  154.2804  178.8940 N   0  0  0  0  0  0  0  0  0  0  0  0
   90.7650  154.3419  180.1904 N   0  0  0  0  0  0  0  0  0  0  0  0
   90.1950  155.5115  180.4443 C   0  0  0  0  0  0  0  0  0  0  0  0
   91.1049  153.2528  181.1317 C   0  0  0  0  0  0  0  0  0  0  0  0
   90.2462  152.0360  180.8418 C   0  0  0  0  0  0  0  0  0  0  0  0
   89.9573  149.7811  181.8314 C   0  0  0  0  0  0  0  0  0  0  0  0
   90.9537  150.8544  181.4416 C   0  0  0  0  0  0  0  0  0  0  0  0
  2  1  1  1
  2  3  1  0
  2 17  1  0
  3  4  1  0
  4  5  1  6
  4 16  1  0
  5  6  1  0
  6  7  1  0
  6 15  2  0
  7  8  2  0
  7 13  1  0
  8  9  1  0
  9 10  2  0
 10 11  1  0
 11 12  1  0
 11 13  2  0
 13 14  1  0
 14 15  1  0
 16 17  1  0
 17 18  1  6
 18 19  1  0
 19 20  1  0
 20 21  1  0
 21 22  1  0
 22 23  1  0
 23 24  1  0
 23 27  2  0
 24 25  2  0
 25 26  1  0
 26 27  1  0
 26 28  1  0
 28 29  1  0
 29 31  1  0
 31 30  1  0
M  CHG  1   4   1
M  END
$$$$
