
     RDKit          3D

 31 34  0  0  0  0  0  0  0  0999 V2000
   88.1575  162.3982  177.5045 O   0  0  0  0  0  0  0  0  0  0  0  0
   86.8257  161.9790  177.6750 C   0  0  1  0  0  0  0  0  0  0  0  0
   85.9672  163.0672  177.1302 C   0  0  0  0  0  0  0  0  0  0  0  0
   86.1108  162.8321  175.6501 N   0  0  2  0  0  4  0  0  0  0  0  0
   85.1939  163.7795  175.0210 C   0  0  0  0  0  0  0  0  0  0  0  0
   83.9730  163.0841  174.5655 C   0  0  0  0  0  0  0  0  0  0  0  0
   83.6903  162.4737  173.3627 C   0  0  0  0  0  0  0  0  0  0  0  0
   84.4472  162.1839  172.2638 N   0  0  0  0  0  0  0  0  0  0  0  0
   83.9477  161.5307  171.2225 C   0  0  0  0  0  0  0  0  0  0  0  0
   82.6666  161.1351  171.2257 N   0  0  0  0  0  0  0  0  0  0  0  0
   81.8432  161.3599  172.2290 C   0  0  0  0  0  0  0  0  0  0  0  0
   80.4777  161.0044  172.2566 N   0  0  0  0  0  0  0  0  0  0  0  0
   82.3791  162.0605  173.3451 C   0  0  0  0  0  0  0  0  0  0  0  0
   81.8250  162.3830  174.5044 N   0  0  0  0  0  0  0  0  0  0  0  0
   82.7584  163.0099  175.2748 C   0  0  0  0  0  0  0  0  0  0  0  0
   85.8149  161.4650  175.5466 C   0  0  0  0  0  0  0  0  0  0  0  0
   86.5084  160.8137  176.7634 C   0  0  2  0  0  0  0  0  0  0  0  0
   85.5103  159.8611  177.4007 C   0  0  0  0  0  0  0  0  0  0  0  0
   86.2349  158.9001  178.7275 S   0  0  0  0  0  0  0  0  0  0  0  0
   87.4978  157.7248  178.1171 C   0  0  0  0  0  0  0  0  0  0  0  0
   88.0767  157.1132  179.4051 C   0  0  0  0  0  0  0  0  0  0  0  0
   89.1418  156.1495  178.9637 C   0  0  0  0  0  0  0  0  0  0  0  0
   89.0338  154.8571  179.6463 C   0  0  0  0  0  0  0  0  0  0  0  0
   89.5825  154.6721  180.8807 N   0  0  0  0  0  0  0  0  0  0  0  0
   89.3223  153.4615  181.2728 N   0  0  0  0  0  0  0  0  0  0  0  0
   88.6228  152.8262  180.3522 N   0  0  0  0  0  0  0  0  0  0  0  0
   88.4314  153.6606  179.3400 C   0  0  0  0  0  0  0  0  0  0  0  0
   88.1693  151.4260  180.4974 C   0  0  0  0  0  0  0  0  0  0  0  0
   88.1567  151.0391  181.9645 C   0  0  0  0  0  0  0  0  0  0  0  0
   87.6989  149.1198  183.4656 C   0  0  0  0  0  0  0  0  0  0  0  0
   87.7207  149.6031  182.0295 C   0  0  0  0  0  0  0  0  0  0  0  0
  2  1  1  6
  2  3  1  0
  2 17  1  0
  3  4  1  0
  4  5  1  6
  4 16  1  0
  5  6  1  0
  6  7  1  0
  6 15  2  0
  7  8  2  0
  7 13  1  0
  8  9  1  0
  9 10  2  0
 10 11  1  0
 11 12  1  0
 11 13  2  0
 13 14  1  0
 14 15  1  0
 16 17  1  0
 17 18  1  1
 18 19  1  0
 19 20  1  0
 20 21  1  0
 21 22  1  0
 22 23  1  0
 23 24  1  0
 23 27  2  0
 24 25  2  0
 25 26  1  0
 26 27  1  0
 26 28  1  0
 28 29  1  0
 29 31  1  0
 31 30  1  0
M  CHG  1   4   1
M  END
$$$$
