
     RDKit          3D

 31 34  0  0  0  0  0  0  0  0999 V2000
   87.3515  161.7088  179.0277 O   0  0  0  0  0  0  0  0  0  0  0  0
   86.9720  161.0073  177.8691 C   0  0  1  0  0  0  0  0  0  0  0  0
   85.5128  161.2454  177.6900 C   0  0  0  0  0  0  0  0  0  0  0  0
   85.5163  162.6463  177.1386 N   0  0  2  0  0  4  0  0  0  0  0  0
   84.1228  162.9301  176.8047 C   0  0  0  0  0  0  0  0  0  0  0  0
   83.7040  162.1309  175.6353 C   0  0  0  0  0  0  0  0  0  0  0  0
   83.2431  162.5315  174.3999 C   0  0  0  0  0  0  0  0  0  0  0  0
   83.1442  163.7502  173.7922 N   0  0  0  0  0  0  0  0  0  0  0  0
   82.7013  163.8779  172.5480 C   0  0  0  0  0  0  0  0  0  0  0  0
   82.3335  162.7948  171.8484 N   0  0  0  0  0  0  0  0  0  0  0  0
   82.3850  161.5705  172.3316 C   0  0  0  0  0  0  0  0  0  0  0  0
   81.9651  160.4082  171.6501 N   0  0  0  0  0  0  0  0  0  0  0  0
   82.8597  161.4341  173.6657 C   0  0  0  0  0  0  0  0  0  0  0  0
   83.0722  160.3493  174.3959 N   0  0  0  0  0  0  0  0  0  0  0  0
   83.5821  160.7280  175.6019 C   0  0  0  0  0  0  0  0  0  0  0  0
   86.4347  162.5374  176.0841 C   0  0  0  0  0  0  0  0  0  0  0  0
   87.5697  161.6460  176.6345 C   0  0  2  0  0  0  0  0  0  0  0  0
   87.8925  160.6103  175.5699 C   0  0  0  0  0  0  0  0  0  0  0  0
   89.5556  159.9639  175.7282 S   0  0  0  0  0  0  0  0  0  0  0  0
   89.7250  158.8407  177.1630 C   0  0  0  0  0  0  0  0  0  0  0  0
   91.2472  158.7328  177.3614 C   0  0  0  0  0  0  0  0  0  0  0  0
   91.4744  157.4695  178.1429 C   0  0  0  0  0  0  0  0  0  0  0  0
   90.7025  157.4449  179.3885 C   0  0  0  0  0  0  0  0  0  0  0  0
   91.2394  157.9126  180.5513 N   0  0  0  0  0  0  0  0  0  0  0  0
   90.3487  157.8078  181.4908 N   0  0  0  0  0  0  0  0  0  0  0  0
   89.2369  157.2880  181.0068 N   0  0  0  0  0  0  0  0  0  0  0  0
   89.4265  157.0542  179.7158 C   0  0  0  0  0  0  0  0  0  0  0  0
   88.0315  157.0387  181.8266 C   0  0  0  0  0  0  0  0  0  0  0  0
   86.8297  157.7137  181.1924 C   0  0  0  0  0  0  0  0  0  0  0  0
   84.7078  157.2329  182.3813 C   0  0  0  0  0  0  0  0  0  0  0  0
   85.6788  156.7567  181.3197 C   0  0  0  0  0  0  0  0  0  0  0  0
  2  1  1  1
  2  3  1  0
  2 17  1  0
  3  4  1  0
  4  5  1  6
  4 16  1  0
  5  6  1  0
  6  7  1  0
  6 15  2  0
  7  8  2  0
  7 13  1  0
  8  9  1  0
  9 10  2  0
 10 11  1  0
 11 12  1  0
 11 13  2  0
 13 14  1  0
 14 15  1  0
 16 17  1  0
 17 18  1  6
 18 19  1  0
 19 20  1  0
 20 21  1  0
 21 22  1  0
 22 23  1  0
 23 24  1  0
 23 27  2  0
 24 25  2  0
 25 26  1  0
 26 27  1  0
 26 28  1  0
 28 29  1  0
 29 31  1  0
 31 30  1  0
M  CHG  1   4   1
M  END
$$$$
