
     RDKit          3D

 31 34  0  0  0  0  0  0  0  0999 V2000
   87.1121  159.7595  173.6301 O   0  0  0  0  0  0  0  0  0  0  0  0
   86.9574  160.8406  174.5165 C   0  0  1  0  0  0  0  0  0  0  0  0
   86.6255  162.0279  173.6808 C   0  0  0  0  0  0  0  0  0  0  0  0
   85.1779  161.7607  173.3648 N   0  0  2  0  0  4  0  0  0  0  0  0
   84.7173  162.9464  172.6466 C   0  0  0  0  0  0  0  0  0  0  0  0
   83.3262  163.2663  173.0265 C   0  0  0  0  0  0  0  0  0  0  0  0
   82.1354  162.9198  172.4257 C   0  0  0  0  0  0  0  0  0  0  0  0
   81.8207  162.0821  171.3944 N   0  0  0  0  0  0  0  0  0  0  0  0
   80.5647  161.8720  171.0217 C   0  0  0  0  0  0  0  0  0  0  0  0
   79.5597  162.4891  171.6595 N   0  0  0  0  0  0  0  0  0  0  0  0
   79.7436  163.3184  172.6662 C   0  0  0  0  0  0  0  0  0  0  0  0
   78.7217  164.0253  173.3355 N   0  0  0  0  0  0  0  0  0  0  0  0
   81.0903  163.5435  173.0653 C   0  0  0  0  0  0  0  0  0  0  0  0
   81.5828  164.2680  174.0590 N   0  0  0  0  0  0  0  0  0  0  0  0
   82.9389  164.1304  174.0692 C   0  0  0  0  0  0  0  0  0  0  0  0
   84.6460  161.5177  174.6397 C   0  0  0  0  0  0  0  0  0  0  0  0
   85.7146  160.6683  175.3623 C   0  0  2  0  0  0  0  0  0  0  0  0
   85.8989  161.2544  176.7524 C   0  0  0  0  0  0  0  0  0  0  0  0
   87.4364  160.7380  177.5129 S   0  0  0  0  0  0  0  0  0  0  0  0
   87.1797  159.4325  178.7693 C   0  0  0  0  0  0  0  0  0  0  0  0
   87.4988  158.1319  178.0112 C   0  0  0  0  0  0  0  0  0  0  0  0
   87.0507  157.0106  178.9057 C   0  0  0  0  0  0  0  0  0  0  0  0
   87.6065  157.1268  180.2568 C   0  0  0  0  0  0  0  0  0  0  0  0
   86.9146  156.6663  181.3377 N   0  0  0  0  0  0  0  0  0  0  0  0
   87.6328  156.8596  182.4026 N   0  0  0  0  0  0  0  0  0  0  0  0
   88.7772  157.4317  182.0811 N   0  0  0  0  0  0  0  0  0  0  0  0
   88.7877  157.6086  180.7673 C   0  0  0  0  0  0  0  0  0  0  0  0
   89.8166  157.7849  183.0721 C   0  0  0  0  0  0  0  0  0  0  0  0
   90.5409  159.0433  182.6314 C   0  0  0  0  0  0  0  0  0  0  0  0
   92.9143  159.1831  183.3344 C   0  0  0  0  0  0  0  0  0  0  0  0
   91.4750  159.4179  183.7466 C   0  0  0  0  0  0  0  0  0  0  0  0
  2  1  1  6
  2  3  1  0
  2 17  1  0
  3  4  1  0
  4  5  1  1
  4 16  1  0
  5  6  1  0
  6  7  1  0
  6 15  2  0
  7  8  2  0
  7 13  1  0
  8  9  1  0
  9 10  2  0
 10 11  1  0
 11 12  1  0
 11 13  2  0
 13 14  1  0
 14 15  1  0
 16 17  1  0
 17 18  1  1
 18 19  1  0
 19 20  1  0
 20 21  1  0
 21 22  1  0
 22 23  1  0
 23 24  1  0
 23 27  2  0
 24 25  2  0
 25 26  1  0
 26 27  1  0
 26 28  1  0
 28 29  1  0
 29 31  1  0
 31 30  1  0
M  CHG  1   4   1
M  END
$$$$
