
     RDKit          3D

 31 34  0  0  0  0  0  0  0  0999 V2000
   89.0867  163.4958  176.3940 O   0  0  0  0  0  0  0  0  0  0  0  0
   87.8234  163.0417  176.8138 C   0  0  1  0  0  0  0  0  0  0  0  0
   86.8160  163.8481  176.0702 C   0  0  0  0  0  0  0  0  0  0  0  0
   86.8724  163.1973  174.7137 N   0  0  2  0  0  4  0  0  0  0  0  0
   85.8157  163.8399  173.9363 C   0  0  0  0  0  0  0  0  0  0  0  0
   84.8775  162.8264  173.4125 C   0  0  0  0  0  0  0  0  0  0  0  0
   83.7207  162.3148  173.9594 C   0  0  0  0  0  0  0  0  0  0  0  0
   82.9862  162.6436  175.0625 N   0  0  0  0  0  0  0  0  0  0  0  0
   81.8543  162.0191  175.3613 C   0  0  0  0  0  0  0  0  0  0  0  0
   81.3996  161.0336  174.5740 N   0  0  0  0  0  0  0  0  0  0  0  0
   82.0239  160.6311  173.4862 C   0  0  0  0  0  0  0  0  0  0  0  0
   81.6082  159.5690  172.6551 N   0  0  0  0  0  0  0  0  0  0  0  0
   83.2375  161.3008  173.1664 C   0  0  0  0  0  0  0  0  0  0  0  0
   84.0490  161.1607  172.1287 N   0  0  0  0  0  0  0  0  0  0  0  0
   85.0612  162.0667  172.2408 C   0  0  0  0  0  0  0  0  0  0  0  0
   86.7160  161.8418  175.0389 C   0  0  0  0  0  0  0  0  0  0  0  0
   87.5639  161.6374  176.3137 C   0  0  2  0  0  0  0  0  0  0  0  0
   86.7230  160.8402  177.2972 C   0  0  0  0  0  0  0  0  0  0  0  0
   87.7134  160.0729  178.5775 S   0  0  0  0  0  0  0  0  0  0  0  0
   86.6870  159.1774  179.7994 C   0  0  0  0  0  0  0  0  0  0  0  0
   86.1198  160.2986  180.6877 C   0  0  0  0  0  0  0  0  0  0  0  0
   86.7593  160.1223  182.0361 C   0  0  0  0  0  0  0  0  0  0  0  0
   87.1834  158.7388  182.2689 C   0  0  0  0  0  0  0  0  0  0  0  0
   87.0581  158.1686  183.5010 N   0  0  0  0  0  0  0  0  0  0  0  0
   87.4734  156.9398  183.4333 N   0  0  0  0  0  0  0  0  0  0  0  0
   87.8732  156.6623  182.2072 N   0  0  0  0  0  0  0  0  0  0  0  0
   87.7068  157.7512  181.4696 C   0  0  0  0  0  0  0  0  0  0  0  0
   88.4042  155.3420  181.8040 C   0  0  0  0  0  0  0  0  0  0  0  0
   89.7053  155.5214  181.0443 C   0  0  0  0  0  0  0  0  0  0  0  0
   92.0105  154.7626  181.5517 C   0  0  0  0  0  0  0  0  0  0  0  0
   90.5668  154.3364  181.3763 C   0  0  0  0  0  0  0  0  0  0  0  0
  2  1  1  6
  2  3  1  0
  2 17  1  0
  3  4  1  0
  4  5  1  6
  4 16  1  0
  5  6  1  0
  6  7  1  0
  6 15  2  0
  7  8  2  0
  7 13  1  0
  8  9  1  0
  9 10  2  0
 10 11  1  0
 11 12  1  0
 11 13  2  0
 13 14  1  0
 14 15  1  0
 16 17  1  0
 17 18  1  1
 18 19  1  0
 19 20  1  0
 20 21  1  0
 21 22  1  0
 22 23  1  0
 23 24  1  0
 23 27  2  0
 24 25  2  0
 25 26  1  0
 26 27  1  0
 26 28  1  0
 28 29  1  0
 29 31  1  0
 31 30  1  0
M  CHG  1   4   1
M  END
$$$$
