
     RDKit          3D

 31 34  0  0  0  0  0  0  0  0999 V2000
   87.8469  163.0163  177.0193 O   0  0  0  0  0  0  0  0  0  0  0  0
   87.0450  162.1478  177.7817 C   0  0  1  0  0  0  0  0  0  0  0  0
   85.6324  162.5472  177.5303 C   0  0  0  0  0  0  0  0  0  0  0  0
   85.4057  161.9553  176.1646 N   0  0  2  0  0  4  0  0  0  0  0  0
   83.9917  162.1841  175.8779 C   0  0  0  0  0  0  0  0  0  0  0  0
   83.6213  161.5527  174.5949 C   0  0  0  0  0  0  0  0  0  0  0  0
   83.2617  162.1212  173.3922 C   0  0  0  0  0  0  0  0  0  0  0  0
   83.2534  163.4076  172.9346 N   0  0  0  0  0  0  0  0  0  0  0  0
   82.9013  163.7056  171.6905 C   0  0  0  0  0  0  0  0  0  0  0  0
   82.5385  162.7338  170.8410 N   0  0  0  0  0  0  0  0  0  0  0  0
   82.5078  161.4591  171.1716 C   0  0  0  0  0  0  0  0  0  0  0  0
   82.0885  160.4090  170.3270 N   0  0  0  0  0  0  0  0  0  0  0  0
   82.8851  161.1401  172.5056 C   0  0  0  0  0  0  0  0  0  0  0  0
   83.0037  159.9662  173.1080 N   0  0  0  0  0  0  0  0  0  0  0  0
   83.4456  160.1717  174.3810 C   0  0  0  0  0  0  0  0  0  0  0  0
   85.8318  160.6320  176.3510 C   0  0  0  0  0  0  0  0  0  0  0  0
   87.0992  160.7410  177.2272 C   0  0  2  0  0  0  0  0  0  0  0  0
   86.9820  159.7009  178.3292 C   0  0  0  0  0  0  0  0  0  0  0  0
   88.5491  159.3818  179.1363 S   0  0  0  0  0  0  0  0  0  0  0  0
   89.4793  158.0303  178.3258 C   0  0  0  0  0  0  0  0  0  0  0  0
   90.2834  158.7504  177.2291 C   0  0  0  0  0  0  0  0  0  0  0  0
   91.6689  158.1709  177.2833 C   0  0  0  0  0  0  0  0  0  0  0  0
   91.6525  156.7065  177.3400 C   0  0  0  0  0  0  0  0  0  0  0  0
   90.5175  156.0097  177.0477 N   0  0  0  0  0  0  0  0  0  0  0  0
   90.7749  154.7400  177.1414 N   0  0  0  0  0  0  0  0  0  0  0  0
   92.0351  154.5562  177.4856 N   0  0  0  0  0  0  0  0  0  0  0  0
   92.5988  155.7490  177.6153 C   0  0  0  0  0  0  0  0  0  0  0  0
   92.6396  153.2198  177.6758 C   0  0  0  0  0  0  0  0  0  0  0  0
   94.0049  153.3604  178.3225 C   0  0  0  0  0  0  0  0  0  0  0  0
   94.4315  153.5949  180.7536 C   0  0  0  0  0  0  0  0  0  0  0  0
   93.9229  152.6788  179.6587 C   0  0  0  0  0  0  0  0  0  0  0  0
  2  1  1  6
  2  3  1  0
  2 17  1  0
  3  4  1  0
  4  5  1  1
  4 16  1  0
  5  6  1  0
  6  7  1  0
  6 15  2  0
  7  8  2  0
  7 13  1  0
  8  9  1  0
  9 10  2  0
 10 11  1  0
 11 12  1  0
 11 13  2  0
 13 14  1  0
 14 15  1  0
 16 17  1  0
 17 18  1  1
 18 19  1  0
 19 20  1  0
 20 21  1  0
 21 22  1  0
 22 23  1  0
 23 24  1  0
 23 27  2  0
 24 25  2  0
 25 26  1  0
 26 27  1  0
 26 28  1  0
 28 29  1  0
 29 31  1  0
 31 30  1  0
M  CHG  1   4   1
M  END
$$$$
