
     RDKit          3D

 31 34  0  0  0  0  0  0  0  0999 V2000
   86.6260  163.4658  177.7062 O   0  0  0  0  0  0  0  0  0  0  0  0
   85.5547  162.6126  177.3858 C   0  0  1  0  0  0  0  0  0  0  0  0
   85.3938  162.6738  175.9064 C   0  0  0  0  0  0  0  0  0  0  0  0
   86.5402  161.8074  175.4571 N   0  0  2  0  0  4  0  0  0  0  0  0
   86.3923  161.6975  174.0080 C   0  0  0  0  0  0  0  0  0  0  0  0
   85.0012  161.9964  173.6117 C   0  0  0  0  0  0  0  0  0  0  0  0
   83.8440  161.2730  173.8034 C   0  0  0  0  0  0  0  0  0  0  0  0
   83.5581  160.1431  174.5147 N   0  0  0  0  0  0  0  0  0  0  0  0
   82.3267  159.6542  174.5865 C   0  0  0  0  0  0  0  0  0  0  0  0
   81.3189  160.2685  173.9503 N   0  0  0  0  0  0  0  0  0  0  0  0
   81.4763  161.3629  173.2344 C   0  0  0  0  0  0  0  0  0  0  0  0
   80.4558  162.0158  172.5106 N   0  0  0  0  0  0  0  0  0  0  0  0
   82.7968  161.8866  173.1575 C   0  0  0  0  0  0  0  0  0  0  0  0
   83.2542  162.9820  172.5695 N   0  0  0  0  0  0  0  0  0  0  0  0
   84.5905  163.0851  172.8178 C   0  0  0  0  0  0  0  0  0  0  0  0
   86.3446  160.6510  176.2264 C   0  0  0  0  0  0  0  0  0  0  0  0
   85.9305  161.1661  177.6224 C   0  0  2  0  0  0  0  0  0  0  0  0
   84.7344  160.3447  178.0747 C   0  0  0  0  0  0  0  0  0  0  0  0
   85.1491  158.6218  178.3368 S   0  0  0  0  0  0  0  0  0  0  0  0
   86.9274  158.3883  178.6997 C   0  0  0  0  0  0  0  0  0  0  0  0
   86.9372  157.8761  180.1508 C   0  0  0  0  0  0  0  0  0  0  0  0
   88.1827  158.4351  180.7789 C   0  0  0  0  0  0  0  0  0  0  0  0
   89.3755  157.6619  180.4217 C   0  0  0  0  0  0  0  0  0  0  0  0
   90.5353  158.2892  180.0745 N   0  0  0  0  0  0  0  0  0  0  0  0
   91.4390  157.3873  179.8363 N   0  0  0  0  0  0  0  0  0  0  0  0
   90.9335  156.1810  180.0082 N   0  0  0  0  0  0  0  0  0  0  0  0
   89.6651  156.3198  180.3679 C   0  0  0  0  0  0  0  0  0  0  0  0
   91.7106  154.9378  179.8127 C   0  0  0  0  0  0  0  0  0  0  0  0
   91.3199  153.9164  180.8644 C   0  0  0  0  0  0  0  0  0  0  0  0
   90.6230  151.6610  180.1063 C   0  0  0  0  0  0  0  0  0  0  0  0
   90.1974  153.1047  180.2833 C   0  0  0  0  0  0  0  0  0  0  0  0
  2  1  1  6
  2  3  1  0
  2 17  1  0
  3  4  1  0
  4  5  1  6
  4 16  1  0
  5  6  1  0
  6  7  1  0
  6 15  2  0
  7  8  2  0
  7 13  1  0
  8  9  1  0
  9 10  2  0
 10 11  1  0
 11 12  1  0
 11 13  2  0
 13 14  1  0
 14 15  1  0
 16 17  1  0
 17 18  1  6
 18 19  1  0
 19 20  1  0
 20 21  1  0
 21 22  1  0
 22 23  1  0
 23 24  1  0
 23 27  2  0
 24 25  2  0
 25 26  1  0
 26 27  1  0
 26 28  1  0
 28 29  1  0
 29 31  1  0
 31 30  1  0
M  CHG  1   4   1
M  END
$$$$
