
     RDKit          3D

 31 34  0  0  0  0  0  0  0  0999 V2000
   87.1401  163.1249  178.4525 O   0  0  0  0  0  0  0  0  0  0  0  0
   85.9512  162.5330  177.9893 C   0  0  1  0  0  0  0  0  0  0  0  0
   85.5516  163.2869  176.7686 C   0  0  0  0  0  0  0  0  0  0  0  0
   86.5153  162.7260  175.7569 N   0  0  2  0  0  4  0  0  0  0  0  0
   86.1167  163.3147  174.4807 C   0  0  0  0  0  0  0  0  0  0  0  0
   85.1414  162.4412  173.7969 C   0  0  0  0  0  0  0  0  0  0  0  0
   83.7717  162.3615  173.9255 C   0  0  0  0  0  0  0  0  0  0  0  0
   82.8527  163.1179  174.5947 N   0  0  0  0  0  0  0  0  0  0  0  0
   81.5524  162.8633  174.5246 C   0  0  0  0  0  0  0  0  0  0  0  0
   81.1045  161.8396  173.7836 N   0  0  0  0  0  0  0  0  0  0  0  0
   81.8975  161.0428  173.0971 C   0  0  0  0  0  0  0  0  0  0  0  0
   81.4757  159.9270  172.3430 N   0  0  0  0  0  0  0  0  0  0  0  0
   83.2916  161.3160  173.1727 C   0  0  0  0  0  0  0  0  0  0  0  0
   84.3154  160.7363  172.5640 N   0  0  0  0  0  0  0  0  0  0  0  0
   85.4594  161.3871  172.9184 C   0  0  0  0  0  0  0  0  0  0  0  0
   86.3380  161.3450  175.9265 C   0  0  0  0  0  0  0  0  0  0  0  0
   86.2165  161.1432  177.4530 C   0  0  2  0  0  0  0  0  0  0  0  0
   85.0378  160.2153  177.6974 C   0  0  0  0  0  0  0  0  0  0  0  0
   85.4554  158.8520  178.7818 S   0  0  0  0  0  0  0  0  0  0  0  0
   87.1499  158.2285  178.4841 C   0  0  0  0  0  0  0  0  0  0  0  0
   86.9347  157.0258  177.5485 C   0  0  0  0  0  0  0  0  0  0  0  0
   87.3692  155.8145  178.3245 C   0  0  0  0  0  0  0  0  0  0  0  0
   88.8140  155.8064  178.5712 C   0  0  0  0  0  0  0  0  0  0  0  0
   89.3050  155.6600  179.8347 N   0  0  0  0  0  0  0  0  0  0  0  0
   90.6026  155.6554  179.7771 N   0  0  0  0  0  0  0  0  0  0  0  0
   91.0024  155.7939  178.5276 N   0  0  0  0  0  0  0  0  0  0  0  0
   89.9229  155.8899  177.7641 C   0  0  0  0  0  0  0  0  0  0  0  0
   92.4261  155.8283  178.1282 C   0  0  0  0  0  0  0  0  0  0  0  0
   93.3007  155.4505  179.3090 C   0  0  0  0  0  0  0  0  0  0  0  0
   95.6785  155.4014  180.0096 C   0  0  0  0  0  0  0  0  0  0  0  0
   94.7248  155.5468  178.8409 C   0  0  0  0  0  0  0  0  0  0  0  0
  2  1  1  6
  2  3  1  0
  2 17  1  0
  3  4  1  0
  4  5  1  6
  4 16  1  0
  5  6  1  0
  6  7  1  0
  6 15  2  0
  7  8  2  0
  7 13  1  0
  8  9  1  0
  9 10  2  0
 10 11  1  0
 11 12  1  0
 11 13  2  0
 13 14  1  0
 14 15  1  0
 16 17  1  0
 17 18  1  6
 18 19  1  0
 19 20  1  0
 20 21  1  0
 21 22  1  0
 22 23  1  0
 23 24  1  0
 23 27  2  0
 24 25  2  0
 25 26  1  0
 26 27  1  0
 26 28  1  0
 28 29  1  0
 29 31  1  0
 31 30  1  0
M  CHG  1   4   1
M  END
$$$$
