
     RDKit          3D

 31 34  0  0  0  0  0  0  0  0999 V2000
   57.5897  173.8036  184.4564 O   0  0  0  0  0  0  0  0  0  0  0  0
   57.4483  174.9427  183.6435 C   0  0  1  0  0  0  0  0  0  0  0  0
   57.1988  174.4470  182.2614 C   0  0  0  0  0  0  0  0  0  0  0  0
   55.7540  174.0355  182.3607 N   0  0  2  0  0  4  0  0  0  0  0  0
   55.3715  173.6494  181.0047 C   0  0  0  0  0  0  0  0  0  0  0  0
   55.2660  174.8444  180.1431 C   0  0  0  0  0  0  0  0  0  0  0  0
   56.2455  175.6842  179.6589 C   0  0  0  0  0  0  0  0  0  0  0  0
   57.6099  175.6371  179.6841 N   0  0  0  0  0  0  0  0  0  0  0  0
   58.3532  176.5629  179.0918 C   0  0  0  0  0  0  0  0  0  0  0  0
   57.7712  177.5833  178.4454 N   0  0  0  0  0  0  0  0  0  0  0  0
   56.4654  177.7320  178.3566 C   0  0  0  0  0  0  0  0  0  0  0  0
   55.8101  178.8126  177.7284 N   0  0  0  0  0  0  0  0  0  0  0  0
   55.6689  176.7393  178.9921 C   0  0  0  0  0  0  0  0  0  0  0  0
   54.3534  176.5884  179.0318 N   0  0  0  0  0  0  0  0  0  0  0  0
   54.0654  175.4505  179.7249 C   0  0  0  0  0  0  0  0  0  0  0  0
   55.1649  175.1855  182.9064 C   0  0  0  0  0  0  0  0  0  0  0  0
   56.1686  175.6808  183.9708 C   0  0  2  0  0  0  0  0  0  0  0  0
   56.3257  177.1811  183.7856 C   0  0  0  0  0  0  0  0  0  0  0  0
   56.3793  178.0598  185.3458 S   0  0  0  0  0  0  0  0  0  0  0  0
   56.0054  176.9673  186.7654 C   0  0  0  0  0  0  0  0  0  0  0  0
   57.3787  176.7443  187.4230 C   0  0  0  0  0  0  0  0  0  0  0  0
   57.1086  176.5404  188.8871 C   0  0  0  0  0  0  0  0  0  0  0  0
   55.6788  176.6171  189.2003 C   0  0  0  0  0  0  0  0  0  0  0  0
   54.8807  175.5171  189.0906 N   0  0  0  0  0  0  0  0  0  0  0  0
   53.6760  175.8414  189.4518 N   0  0  0  0  0  0  0  0  0  0  0  0
   53.6325  177.1136  189.7981 N   0  0  0  0  0  0  0  0  0  0  0  0
   54.8506  177.6160  189.6524 C   0  0  0  0  0  0  0  0  0  0  0  0
   52.3999  177.7899  190.2574 C   0  0  0  0  0  0  0  0  0  0  0  0
   52.7103  179.2280  190.6284 C   0  0  0  0  0  0  0  0  0  0  0  0
   52.3058  180.0185  192.9433 C   0  0  0  0  0  0  0  0  0  0  0  0
   53.2176  179.2102  192.0422 C   0  0  0  0  0  0  0  0  0  0  0  0
  2  1  1  1
  2  3  1  0
  2 17  1  0
  3  4  1  0
  4  5  1  6
  4 16  1  0
  5  6  1  0
  6  7  1  0
  6 15  2  0
  7  8  2  0
  7 13  1  0
  8  9  1  0
  9 10  2  0
 10 11  1  0
 11 12  1  0
 11 13  2  0
 13 14  1  0
 14 15  1  0
 16 17  1  0
 17 18  1  6
 18 19  1  0
 19 20  1  0
 20 21  1  0
 21 22  1  0
 22 23  1  0
 23 24  1  0
 23 27  2  0
 24 25  2  0
 25 26  1  0
 26 27  1  0
 26 28  1  0
 28 29  1  0
 29 31  1  0
 31 30  1  0
M  CHG  1   4   1
M  END
$$$$
