
     RDKit          3D

 31 34  0  0  0  0  0  0  0  0999 V2000
   86.7653  162.8457  178.7310 O   0  0  0  0  0  0  0  0  0  0  0  0
   85.7864  162.0583  178.0984 C   0  0  1  0  0  0  0  0  0  0  0  0
   85.1667  162.9161  177.0504 C   0  0  0  0  0  0  0  0  0  0  0  0
   86.2320  162.8844  175.9870 N   0  0  2  0  0  4  0  0  0  0  0  0
   85.6593  163.6001  174.8495 C   0  0  0  0  0  0  0  0  0  0  0  0
   84.3768  162.9850  174.4513 C   0  0  0  0  0  0  0  0  0  0  0  0
   84.0923  162.0885  173.4441 C   0  0  0  0  0  0  0  0  0  0  0  0
   84.8754  161.3742  172.5832 N   0  0  0  0  0  0  0  0  0  0  0  0
   84.3571  160.5174  171.7126 C   0  0  0  0  0  0  0  0  0  0  0  0
   83.0304  160.3318  171.6572 N   0  0  0  0  0  0  0  0  0  0  0  0
   82.1786  160.9656  172.4368 C   0  0  0  0  0  0  0  0  0  0  0  0
   80.7743  160.8373  172.3819 N   0  0  0  0  0  0  0  0  0  0  0  0
   82.7347  161.8842  173.3698 C   0  0  0  0  0  0  0  0  0  0  0  0
   82.1512  162.6180  174.3058 N   0  0  0  0  0  0  0  0  0  0  0  0
   83.1130  163.3054  174.9843 C   0  0  0  0  0  0  0  0  0  0  0  0
   86.4589  161.5072  175.8489 C   0  0  0  0  0  0  0  0  0  0  0  0
   86.4273  160.9516  177.2898 C   0  0  2  0  0  0  0  0  0  0  0  0
   85.5668  159.6989  177.2762 C   0  0  0  0  0  0  0  0  0  0  0  0
   86.5283  158.2072  177.5197 S   0  0  0  0  0  0  0  0  0  0  0  0
   88.0695  158.5253  178.4536 C   0  0  0  0  0  0  0  0  0  0  0  0
   89.1811  158.1587  177.4545 C   0  0  0  0  0  0  0  0  0  0  0  0
   90.4791  158.4444  178.1559 C   0  0  0  0  0  0  0  0  0  0  0  0
   90.7104  157.5337  179.2808 C   0  0  0  0  0  0  0  0  0  0  0  0
   91.9201  156.9280  179.4505 N   0  0  0  0  0  0  0  0  0  0  0  0
   91.8734  156.2034  180.5274 N   0  0  0  0  0  0  0  0  0  0  0  0
   90.6823  156.2969  181.0866 N   0  0  0  0  0  0  0  0  0  0  0  0
   89.9460  157.1084  180.3404 C   0  0  0  0  0  0  0  0  0  0  0  0
   90.3092  155.5874  182.3295 C   0  0  0  0  0  0  0  0  0  0  0  0
   89.9333  156.5925  183.4022 C   0  0  0  0  0  0  0  0  0  0  0  0
   90.6605  155.5977  185.5536 C   0  0  0  0  0  0  0  0  0  0  0  0
   89.4981  155.8015  184.6028 C   0  0  0  0  0  0  0  0  0  0  0  0
  2  1  1  6
  2  3  1  0
  2 17  1  0
  3  4  1  0
  4  5  1  6
  4 16  1  0
  5  6  1  0
  6  7  1  0
  6 15  2  0
  7  8  2  0
  7 13  1  0
  8  9  1  0
  9 10  2  0
 10 11  1  0
 11 12  1  0
 11 13  2  0
 13 14  1  0
 14 15  1  0
 16 17  1  0
 17 18  1  6
 18 19  1  0
 19 20  1  0
 20 21  1  0
 21 22  1  0
 22 23  1  0
 23 24  1  0
 23 27  2  0
 24 25  2  0
 25 26  1  0
 26 27  1  0
 26 28  1  0
 28 29  1  0
 29 31  1  0
 31 30  1  0
M  CHG  1   4   1
M  END
$$$$
