
     RDKit          3D

 31 34  0  0  0  0  0  0  0  0999 V2000
   87.7227  162.3480  178.4509 O   0  0  0  0  0  0  0  0  0  0  0  0
   86.3902  161.9045  178.3722 C   0  0  1  0  0  0  0  0  0  0  0  0
   85.6520  162.9238  177.5758 C   0  0  0  0  0  0  0  0  0  0  0  0
   86.1068  162.5829  176.1816 N   0  0  2  0  0  4  0  0  0  0  0  0
   85.3311  163.4537  175.3019 C   0  0  0  0  0  0  0  0  0  0  0  0
   84.7848  162.6801  174.1684 C   0  0  0  0  0  0  0  0  0  0  0  0
   83.5883  162.0083  174.0412 C   0  0  0  0  0  0  0  0  0  0  0  0
   82.4725  161.9351  174.8248 N   0  0  0  0  0  0  0  0  0  0  0  0
   81.4024  161.2428  174.4557 C   0  0  0  0  0  0  0  0  0  0  0  0
   81.3933  160.5876  173.2860 N   0  0  0  0  0  0  0  0  0  0  0  0
   82.4117  160.5861  172.4505 C   0  0  0  0  0  0  0  0  0  0  0  0
   82.4646  159.8741  171.2331 N   0  0  0  0  0  0  0  0  0  0  0  0
   83.5588  161.3282  172.8467 C   0  0  0  0  0  0  0  0  0  0  0  0
   84.6975  161.5562  172.2092 N   0  0  0  0  0  0  0  0  0  0  0  0
   85.4731  162.3710  172.9790 C   0  0  0  0  0  0  0  0  0  0  0  0
   85.8564  161.2038  176.1272 C   0  0  0  0  0  0  0  0  0  0  0  0
   86.2864  160.6657  177.5096 C   0  0  2  0  0  0  0  0  0  0  0  0
   85.1885  159.7350  177.9979 C   0  0  0  0  0  0  0  0  0  0  0  0
   85.7216  158.7088  179.3660 S   0  0  0  0  0  0  0  0  0  0  0  0
   87.5444  158.5791  179.4611 C   0  0  0  0  0  0  0  0  0  0  0  0
   87.8428  157.2018  178.8428 C   0  0  0  0  0  0  0  0  0  0  0  0
   88.9811  157.4156  177.8852 C   0  0  0  0  0  0  0  0  0  0  0  0
   90.1399  156.5790  178.2102 C   0  0  0  0  0  0  0  0  0  0  0  0
   90.2740  156.0236  179.4481 N   0  0  0  0  0  0  0  0  0  0  0  0
   91.3596  155.3107  179.4671 N   0  0  0  0  0  0  0  0  0  0  0  0
   91.9598  155.3658  178.2937 N   0  0  0  0  0  0  0  0  0  0  0  0
   91.2318  156.1398  177.5011 C   0  0  0  0  0  0  0  0  0  0  0  0
   93.2241  154.6596  177.9928 C   0  0  0  0  0  0  0  0  0  0  0  0
   94.2381  155.6380  177.4299 C   0  0  0  0  0  0  0  0  0  0  0  0
   96.2338  154.4540  176.5568 C   0  0  0  0  0  0  0  0  0  0  0  0
   95.5971  155.0973  177.7723 C   0  0  0  0  0  0  0  0  0  0  0  0
  2  1  1  6
  2  3  1  0
  2 17  1  0
  3  4  1  0
  4  5  1  6
  4 16  1  0
  5  6  1  0
  6  7  1  0
  6 15  2  0
  7  8  2  0
  7 13  1  0
  8  9  1  0
  9 10  2  0
 10 11  1  0
 11 12  1  0
 11 13  2  0
 13 14  1  0
 14 15  1  0
 16 17  1  0
 17 18  1  1
 18 19  1  0
 19 20  1  0
 20 21  1  0
 21 22  1  0
 22 23  1  0
 23 24  1  0
 23 27  2  0
 24 25  2  0
 25 26  1  0
 26 27  1  0
 26 28  1  0
 28 29  1  0
 29 31  1  0
 31 30  1  0
M  CHG  1   4   1
M  END
$$$$
