
     RDKit          3D

 31 33  0  0  0  0  0  0  0  0999 V2000
  113.0531  -14.3245   -6.6849 C   0  0  1  0  0  0  0  0  0  0  0  0
  109.7408  -11.1954   -8.2287 C   0  0  2  0  0  0  0  0  0  0  0  0
  107.3904  -13.4007   -7.5098 C   0  0  2  0  0  0  0  0  0  0  0  0
  113.5115  -14.3954   -5.2622 C   0  0  1  0  0  0  0  0  0  0  0  0
  111.1647  -10.8249   -8.0381 C   0  0  0  0  0  0  0  0  0  0  0  0
  107.2687  -14.9082   -7.5174 C   0  0  1  0  0  0  0  0  0  0  0  0
  113.9416  -12.9875   -4.8519 C   0  0  0  0  0  0  0  0  0  0  0  0
  112.1413  -11.6798   -8.7613 C   0  0  1  0  0  0  0  0  0  0  0  0
  105.9223  -15.3552   -8.0471 C   0  0  2  0  0  0  0  0  0  0  0  0
  115.0949  -12.6445   -5.7258 C   0  0  0  0  0  0  0  0  0  0  0  0
  111.9227  -13.1013   -8.3092 C   0  0  2  0  0  0  0  0  0  0  0  0
  104.9781  -14.1904   -8.1636 C   0  0  1  0  0  0  0  0  0  0  0  0
  115.2066  -13.1665   -6.9374 C   0  0  0  0  0  0  0  0  0  0  0  0
  110.5479  -13.5653   -8.6292 C   0  0  1  0  0  0  0  0  0  0  0  0
  105.6258  -13.1236   -8.9801 C   0  0  0  0  0  0  0  0  0  0  0  0
  116.3929  -12.7837   -7.7752 C   0  0  0  0  0  0  0  0  0  0  0  0
  109.4337  -12.6458   -8.3403 C   0  0  1  0  0  0  0  0  0  0  0  0
  103.7546  -14.6782   -8.9444 C   0  0  0  0  0  0  0  0  0  0  0  0
  105.9543  -17.6436   -7.3559 C   0  0  0  0  0  0  0  0  0  0  0  0
  109.2422  -10.4275   -9.3809 N   0  0  0  0  0  4  0  0  0  0  0  0
  112.5917  -14.9799   -4.3503 N   0  0  0  0  0  4  0  0  0  0  0  0
  112.0252  -11.6349  -10.1979 N   0  0  0  0  0  4  0  0  0  0  0  0
  105.3062  -16.3615   -7.2159 N   0  0  0  0  0  4  0  0  0  0  0  0
  116.2161  -11.5077   -8.3946 N   0  0  0  0  0  4  0  0  0  0  0  0
  112.2003  -13.3025   -6.9762 O   0  0  0  0  0  0  0  0  0  0  0  0
  108.3181  -15.5254   -8.1935 O   0  0  0  0  0  0  0  0  0  0  0  0
  104.5420  -13.7628   -6.9180 O   0  0  0  0  0  0  0  0  0  0  0  0
  114.2542  -14.0531   -7.4402 O   0  0  0  0  0  0  0  0  0  0  0  0
  110.5223  -14.0295   -9.9689 O   0  0  0  0  0  0  0  0  0  0  0  0
  106.9191  -12.8230   -8.6751 O   0  0  0  0  0  0  0  0  0  0  0  0
  108.6950  -13.0746   -7.2239 O   0  0  0  0  0  0  0  0  0  0  0  0
  1  4  1  0
  1 25  1  1
  1 28  1  0
  2  5  1  0
 17  2  1  0
  2 20  1  6
  3  6  1  0
  3 30  1  0
  3 31  1  6
  4  7  1  0
  4 21  1  1
  5  8  1  0
  6  9  1  0
  6 26  1  6
  7 10  1  0
 11  8  1  0
  8 22  1  6
  9 12  1  0
  9 23  1  1
 13 10  2  0
 14 11  1  0
 11 25  1  1
 15 12  1  0
 12 18  1  6
 12 27  1  0
 13 16  1  0
 28 13  1  0
 17 14  1  0
 14 29  1  6
 30 15  1  0
 16 24  1  0
 17 31  1  1
 23 19  1  0
M  CHG  5  20   1  21   1  22   1  23   1  24   1
M  END
$$$$
