
     RDKit          3D

 31 33  0  0  0  0  0  0  0  0999 V2000
  107.9659  -14.7697  -10.7712 C   0  0  1  0  0  0  0  0  0  0  0  0
  110.3116  -11.2502   -8.6400 C   0  0  2  0  0  0  0  0  0  0  0  0
  111.9868  -13.1256   -6.4480 C   0  0  2  0  0  0  0  0  0  0  0  0
  108.0488  -16.2625  -10.7077 C   0  0  1  0  0  0  0  0  0  0  0  0
  109.4515  -11.2862   -9.8484 C   0  0  0  0  0  0  0  0  0  0  0  0
  113.2457  -13.9519   -6.5889 C   0  0  1  0  0  0  0  0  0  0  0  0
  109.5294  -16.6385  -10.7538 C   0  0  0  0  0  0  0  0  0  0  0  0
  108.0810  -11.8175   -9.6317 C   0  0  1  0  0  0  0  0  0  0  0  0
  113.9298  -14.1561   -5.2535 C   0  0  2  0  0  0  0  0  0  0  0  0
  110.0257  -16.1721  -12.0758 C   0  0  0  0  0  0  0  0  0  0  0  0
  108.2173  -13.2080   -9.0653 C   0  0  2  0  0  0  0  0  0  0  0  0
  113.3305  -13.2636   -4.2017 C   0  0  1  0  0  0  0  0  0  0  0  0
  109.4710  -15.1329  -12.6804 C   0  0  0  0  0  0  0  0  0  0  0  0
  108.9388  -13.1946   -7.7663 C   0  0  1  0  0  0  0  0  0  0  0  0
  111.8557  -13.4825   -4.1660 C   0  0  0  0  0  0  0  0  0  0  0  0
  110.0141  -14.7072  -14.0144 C   0  0  0  0  0  0  0  0  0  0  0  0
  110.1525  -12.3652   -7.6694 C   0  0  1  0  0  0  0  0  0  0  0  0
  113.8890  -13.7205   -2.8511 C   0  0  0  0  0  0  0  0  0  0  0  0
  116.0529  -14.9508   -6.0127 C   0  0  0  0  0  0  0  0  0  0  0  0
  110.1259   -9.9318   -8.0131 N   0  0  0  0  0  4  0  0  0  0  0  0
  107.3582  -16.8692   -9.6241 N   0  0  0  0  0  4  0  0  0  0  0  0
  107.2727  -11.0347   -8.7299 N   0  0  0  0  0  4  0  0  0  0  0  0
  115.3493  -13.9022   -5.3134 N   0  0  0  0  0  4  0  0  0  0  0  0
  111.3609  -14.2390  -13.9145 N   0  0  0  0  0  4  0  0  0  0  0  0
  108.8057  -14.0995   -9.9333 O   0  0  0  0  0  0  0  0  0  0  0  0
  113.0206  -15.1611   -7.2418 O   0  0  0  0  0  0  0  0  0  0  0  0
  113.7013  -11.9397   -4.3867 O   0  0  0  0  0  0  0  0  0  0  0  0
  108.4063  -14.4381  -12.1065 O   0  0  0  0  0  0  0  0  0  0  0  0
  108.0126  -12.9068   -6.7318 O   0  0  0  0  0  0  0  0  0  0  0  0
  111.2145  -13.5127   -5.3676 O   0  0  0  0  0  0  0  0  0  0  0  0
  111.3122  -13.1593   -7.6455 O   0  0  0  0  0  0  0  0  0  0  0  0
  1  4  1  0
  1 25  1  1
  1 28  1  0
  2  5  1  0
 17  2  1  0
  2 20  1  1
  3  6  1  0
  3 30  1  0
  3 31  1  6
  4  7  1  0
  4 21  1  1
  5  8  1  0
  6  9  1  0
  6 26  1  1
  7 10  1  0
 11  8  1  0
  8 22  1  1
  9 12  1  0
  9 23  1  6
 13 10  2  0
 14 11  1  0
 11 25  1  6
 15 12  1  0
 12 18  1  1
 12 27  1  0
 13 16  1  0
 28 13  1  0
 17 14  1  0
 14 29  1  1
 30 15  1  0
 16 24  1  0
 17 31  1  6
 23 19  1  0
M  CHG  5  20   1  21   1  22   1  23   1  24   1
M  END
$$$$
