
     RDKit          3D

 31 33  0  0  0  0  0  0  0  0999 V2000
  107.5571  -17.0976   -6.0070 C   0  0  1  0  0  0  0  0  0  0  0  0
  111.8556  -15.5490   -4.5147 C   0  0  2  0  0  0  0  0  0  0  0  0
  112.1276  -13.8480   -7.3388 C   0  0  2  0  0  0  0  0  0  0  0  0
  106.7554  -16.1053   -6.7892 C   0  0  1  0  0  0  0  0  0  0  0  0
  110.9271  -16.2848   -3.6215 C   0  0  0  0  0  0  0  0  0  0  0  0
  111.7968  -12.3765   -7.4512 C   0  0  1  0  0  0  0  0  0  0  0  0
  106.5634  -14.8753   -5.9026 C   0  0  0  0  0  0  0  0  0  0  0  0
  110.4673  -17.6008   -4.1355 C   0  0  1  0  0  0  0  0  0  0  0  0
  112.6236  -11.7006   -8.5249 C   0  0  2  0  0  0  0  0  0  0  0  0
  105.7709  -15.3380   -4.7325 C   0  0  0  0  0  0  0  0  0  0  0  0
  109.8050  -17.3615   -5.4685 C   0  0  2  0  0  0  0  0  0  0  0  0
  113.7315  -12.6022   -8.9957 C   0  0  1  0  0  0  0  0  0  0  0  0
  105.8501  -16.5911   -4.3123 C   0  0  0  0  0  0  0  0  0  0  0  0
  110.7545  -16.7686   -6.4456 C   0  0  1  0  0  0  0  0  0  0  0  0
  113.1459  -13.9081   -9.4152 C   0  0  0  0  0  0  0  0  0  0  0  0
  105.0264  -17.0015   -3.1254 C   0  0  0  0  0  0  0  0  0  0  0  0
  111.6172  -15.6701   -5.9773 C   0  0  1  0  0  0  0  0  0  0  0  0
  114.3386  -11.9561  -10.2443 C   0  0  0  0  0  0  0  0  0  0  0  0
  112.2076   -9.4282   -7.9096 C   0  0  0  0  0  0  0  0  0  0  0  0
  113.2233  -15.9389   -4.1364 N   0  0  0  0  0  4  0  0  0  0  0  0
  107.2643  -15.7845   -8.0765 N   0  0  0  0  0  4  0  0  0  0  0  0
  111.5182  -18.5716   -4.3159 N   0  0  0  0  0  4  0  0  0  0  0  0
  113.2051  -10.4581   -8.0764 N   0  0  0  0  0  4  0  0  0  0  0  0
  103.9474  -17.8612   -3.4995 N   0  0  0  0  0  4  0  0  0  0  0  0
  108.6621  -16.5991   -5.3849 O   0  0  0  0  0  0  0  0  0  0  0  0
  110.4349  -12.1472   -7.6304 O   0  0  0  0  0  0  0  0  0  0  0  0
  114.7362  -12.7121   -8.0455 O   0  0  0  0  0  0  0  0  0  0  0  0
  106.6740  -17.5218   -4.9454 O   0  0  0  0  0  0  0  0  0  0  0  0
  111.5010  -17.8126   -7.0488 O   0  0  0  0  0  0  0  0  0  0  0  0
  112.2324  -14.4655   -8.5722 O   0  0  0  0  0  0  0  0  0  0  0  0
  111.2038  -14.4356   -6.5072 O   0  0  0  0  0  0  0  0  0  0  0  0
  1  4  1  0
  1 25  1  1
  1 28  1  0
  2  5  1  0
 17  2  1  0
  2 20  1  6
  3  6  1  0
  3 30  1  0
  3 31  1  1
  4  7  1  0
  4 21  1  6
  5  8  1  0
  6  9  1  0
  6 26  1  6
  7 10  1  0
 11  8  1  0
  8 22  1  6
  9 12  1  0
  9 23  1  1
 13 10  2  0
 14 11  1  0
 11 25  1  1
 15 12  1  0
 12 18  1  6
 12 27  1  0
 13 16  1  0
 28 13  1  0
 17 14  1  0
 14 29  1  1
 30 15  1  0
 16 24  1  0
 17 31  1  1
 23 19  1  0
M  CHG  5  20   1  21   1  22   1  23   1  24   1
M  END
$$$$
