
     RDKit          3D

 31 33  0  0  0  0  0  0  0  0999 V2000
  109.8390  -13.4976  -10.4557 C   0  0  1  0  0  0  0  0  0  0  0  0
  113.9551  -13.2534   -8.0567 C   0  0  2  0  0  0  0  0  0  0  0  0
  112.2400  -15.0847   -5.7684 C   0  0  2  0  0  0  0  0  0  0  0  0
  109.5783  -13.9497  -11.8581 C   0  0  1  0  0  0  0  0  0  0  0  0
  113.8841  -12.7475   -9.4496 C   0  0  0  0  0  0  0  0  0  0  0  0
  111.3072  -16.2713   -5.6717 C   0  0  1  0  0  0  0  0  0  0  0  0
  110.5047  -13.1503  -12.7737 C   0  0  0  0  0  0  0  0  0  0  0  0
  112.8293  -11.7312   -9.6987 C   0  0  1  0  0  0  0  0  0  0  0  0
  110.8951  -16.5400   -4.2395 C   0  0  2  0  0  0  0  0  0  0  0  0
  110.0918  -11.7292  -12.6283 C   0  0  0  0  0  0  0  0  0  0  0  0
  111.5071  -12.3453   -9.3147 C   0  0  2  0  0  0  0  0  0  0  0  0
  111.7301  -15.7361   -3.2813 C   0  0  1  0  0  0  0  0  0  0  0  0
  109.5497  -11.2922  -11.5021 C   0  0  0  0  0  0  0  0  0  0  0  0
  111.4826  -12.7216   -7.8774 C   0  0  1  0  0  0  0  0  0  0  0  0
  111.6624  -14.2980   -3.6709 C   0  0  0  0  0  0  0  0  0  0  0  0
  109.1521   -9.8466  -11.4128 C   0  0  0  0  0  0  0  0  0  0  0  0
  112.6659  -13.4096   -7.3327 C   0  0  1  0  0  0  0  0  0  0  0  0
  111.0795  -15.8624   -1.9008 C   0  0  0  0  0  0  0  0  0  0  0  0
  110.0273  -18.7430   -4.5705 C   0  0  0  0  0  0  0  0  0  0  0  0
  114.9045  -12.3952   -7.3302 N   0  0  0  0  0  4  0  0  0  0  0  0
  109.6614  -15.3515  -12.0756 N   0  0  0  0  0  4  0  0  0  0  0  0
  112.9950  -10.5049   -8.9584 N   0  0  0  0  0  4  0  0  0  0  0  0
  111.0057  -17.9343   -3.8833 N   0  0  0  0  0  4  0  0  0  0  0  0
  108.9611   -9.4311  -10.0586 N   0  0  0  0  0  4  0  0  0  0  0  0
  111.1517  -13.4189  -10.0992 O   0  0  0  0  0  0  0  0  0  0  0  0
  110.2025  -16.1521   -6.5111 O   0  0  0  0  0  0  0  0  0  0  0  0
  113.0206  -16.2364   -3.1879 O   0  0  0  0  0  0  0  0  0  0  0  0
  109.3450  -12.1407  -10.4140 O   0  0  0  0  0  0  0  0  0  0  0  0
  111.1299  -11.5809   -7.1122 O   0  0  0  0  0  0  0  0  0  0  0  0
  111.8242  -14.0166   -4.9939 O   0  0  0  0  0  0  0  0  0  0  0  0
  112.4014  -14.7698   -7.0969 O   0  0  0  0  0  0  0  0  0  0  0  0
  1  4  1  0
  1 25  1  6
  1 28  1  0
  2  5  1  0
 17  2  1  0
  2 20  1  1
  3  6  1  0
  3 30  1  0
  3 31  1  6
  4  7  1  0
  4 21  1  1
  5  8  1  0
  6  9  1  0
  6 26  1  6
  7 10  1  0
 11  8  1  0
  8 22  1  1
  9 12  1  0
  9 23  1  1
 13 10  2  0
 14 11  1  0
 11 25  1  6
 15 12  1  0
 12 18  1  1
 12 27  1  0
 13 16  1  0
 28 13  1  0
 17 14  1  0
 14 29  1  1
 30 15  1  0
 16 24  1  0
 17 31  1  6
 23 19  1  0
M  CHG  5  20   1  21   1  22   1  23   1  24   1
M  END
$$$$
