
     RDKit          3D

 31 33  0  0  0  0  0  0  0  0999 V2000
  113.2844  -14.8307   -6.6289 C   0  0  1  0  0  0  0  0  0  0  0  0
  108.8014  -13.6592   -7.9637 C   0  0  2  0  0  0  0  0  0  0  0  0
  107.3898  -15.5840   -5.8674 C   0  0  2  0  0  0  0  0  0  0  0  0
  113.8116  -14.5102   -5.2656 C   0  0  1  0  0  0  0  0  0  0  0  0
  110.0226  -12.9142   -8.3572 C   0  0  0  0  0  0  0  0  0  0  0  0
  107.4436  -16.5754   -4.7265 C   0  0  1  0  0  0  0  0  0  0  0  0
  113.5140  -13.0352   -4.9977 C   0  0  0  0  0  0  0  0  0  0  0  0
  111.0784  -13.7323   -9.0080 C   0  0  1  0  0  0  0  0  0  0  0  0
  106.1198  -17.2882   -4.5459 C   0  0  2  0  0  0  0  0  0  0  0  0
  114.2846  -12.2741   -6.0167 C   0  0  0  0  0  0  0  0  0  0  0  0
  111.4462  -14.8408   -8.0548 C   0  0  2  0  0  0  0  0  0  0  0  0
  105.0406  -16.6302   -5.3608 C   0  0  1  0  0  0  0  0  0  0  0  0
  114.5590  -12.8071   -7.1972 C   0  0  0  0  0  0  0  0  0  0  0  0
  110.2778  -15.7102   -7.7595 C   0  0  1  0  0  0  0  0  0  0  0  0
  105.4923  -16.5429   -6.7795 C   0  0  0  0  0  0  0  0  0  0  0  0
  115.3408  -11.9913   -8.1866 C   0  0  0  0  0  0  0  0  0  0  0  0
  108.9920  -15.0502   -7.4745 C   0  0  1  0  0  0  0  0  0  0  0  0
  103.8229  -17.5581   -5.3295 C   0  0  0  0  0  0  0  0  0  0  0  0
  106.5905  -18.1044   -2.3486 C   0  0  0  0  0  0  0  0  0  0  0  0
  107.8646  -13.5877   -9.0964 N   0  0  0  0  0  4  0  0  0  0  0  0
  113.3654  -15.3626   -4.2199 N   0  0  0  0  0  4  0  0  0  0  0  0
  110.6872  -14.3219  -10.2645 N   0  0  0  0  0  4  0  0  0  0  0  0
  105.6935  -17.3244   -3.1674 N   0  0  0  0  0  4  0  0  0  0  0  0
  115.5149  -12.6829   -9.4254 N   0  0  0  0  0  4  0  0  0  0  0  0
  112.0201  -14.3930   -6.8867 O   0  0  0  0  0  0  0  0  0  0  0  0
  108.4995  -17.4749   -4.8497 O   0  0  0  0  0  0  0  0  0  0  0  0
  104.6597  -15.4140   -4.8129 O   0  0  0  0  0  0  0  0  0  0  0  0
  114.1397  -14.0949   -7.5311 O   0  0  0  0  0  0  0  0  0  0  0  0
  110.1617  -16.6836   -8.7842 O   0  0  0  0  0  0  0  0  0  0  0  0
  106.7623  -16.0966   -6.9886 O   0  0  0  0  0  0  0  0  0  0  0  0
  108.6666  -15.1353   -6.1096 O   0  0  0  0  0  0  0  0  0  0  0  0
  1  4  1  0
  1 25  1  1
  1 28  1  0
  2  5  1  0
 17  2  1  0
  2 20  1  6
  3  6  1  0
  3 30  1  0
  3 31  1  6
  4  7  1  0
  4 21  1  1
  5  8  1  0
  6  9  1  0
  6 26  1  6
  7 10  1  0
 11  8  1  0
  8 22  1  6
  9 12  1  0
  9 23  1  1
 13 10  2  0
 14 11  1  0
 11 25  1  1
 15 12  1  0
 12 18  1  6
 12 27  1  0
 13 16  1  0
 28 13  1  0
 17 14  1  0
 14 29  1  6
 30 15  1  0
 16 24  1  0
 17 31  1  1
 23 19  1  0
M  CHG  5  20   1  21   1  22   1  23   1  24   1
M  END
$$$$
