
     RDKit          3D

 31 33  0  0  0  0  0  0  0  0999 V2000
  107.7808  -11.7505   -8.6620 C   0  0  1  0  0  0  0  0  0  0  0  0
  110.6031  -15.4450   -9.8450 C   0  0  2  0  0  0  0  0  0  0  0  0
  112.3512  -13.8271   -7.2033 C   0  0  2  0  0  0  0  0  0  0  0  0
  107.0936  -11.7463   -7.3327 C   0  0  1  0  0  0  0  0  0  0  0  0
  109.2687  -15.2615  -10.4670 C   0  0  0  0  0  0  0  0  0  0  0  0
  112.2640  -14.0560   -5.7108 C   0  0  1  0  0  0  0  0  0  0  0  0
  106.2099  -12.9918   -7.2733 C   0  0  0  0  0  0  0  0  0  0  0  0
  109.0469  -13.9385  -11.1057 C   0  0  1  0  0  0  0  0  0  0  0  0
  113.2738  -13.2147   -4.9588 C   0  0  2  0  0  0  0  0  0  0  0  0
  105.1999  -12.8248   -8.3519 C   0  0  0  0  0  0  0  0  0  0  0  0
  109.2639  -12.8831  -10.0513 C   0  0  2  0  0  0  0  0  0  0  0  0
  114.2639  -12.5923   -5.9045 C   0  0  1  0  0  0  0  0  0  0  0  0
  105.4793  -12.1242   -9.4402 C   0  0  0  0  0  0  0  0  0  0  0  0
  110.6485  -12.9317   -9.5142 C   0  0  1  0  0  0  0  0  0  0  0  0
  113.5199  -11.8455   -6.9596 C   0  0  0  0  0  0  0  0  0  0  0  0
  104.4200  -11.9895  -10.4963 C   0  0  0  0  0  0  0  0  0  0  0  0
  111.2072  -14.2554   -9.1888 C   0  0  1  0  0  0  0  0  0  0  0  0
  115.0675  -11.5641   -5.1034 C   0  0  0  0  0  0  0  0  0  0  0  0
  113.2033  -14.2287   -2.7949 C   0  0  0  0  0  0  0  0  0  0  0  0
  111.4844  -16.0266  -10.8700 N   0  0  0  0  0  4  0  0  0  0  0  0
  107.9456  -11.6190   -6.2026 N   0  0  0  0  0  4  0  0  0  0  0  0
  109.9207  -13.6585  -12.2182 N   0  0  0  0  0  4  0  0  0  0  0  0
  114.0014  -13.9741   -3.9703 N   0  0  0  0  0  4  0  0  0  0  0  0
  104.6303  -12.8991  -11.5786 N   0  0  0  0  0  4  0  0  0  0  0  0
  108.3478  -12.9350   -9.0254 O   0  0  0  0  0  0  0  0  0  0  0  0
  110.9745  -13.8753   -5.2171 O   0  0  0  0  0  0  0  0  0  0  0  0
  115.1551  -13.5331   -6.3995 O   0  0  0  0  0  0  0  0  0  0  0  0
  106.7232  -11.5186   -9.6182 O   0  0  0  0  0  0  0  0  0  0  0  0
  111.4987  -12.1909  -10.3741 O   0  0  0  0  0  0  0  0  0  0  0  0
  112.4628  -12.4877   -7.5304 O   0  0  0  0  0  0  0  0  0  0  0  0
  111.2801  -14.4505   -7.7987 O   0  0  0  0  0  0  0  0  0  0  0  0
  1  4  1  0
  1 25  1  6
  1 28  1  0
  2  5  1  0
 17  2  1  0
  2 20  1  6
  3  6  1  0
  3 30  1  0
  3 31  1  6
  4  7  1  0
  4 21  1  1
  5  8  1  0
  6  9  1  0
  6 26  1  1
  7 10  1  0
 11  8  1  0
  8 22  1  6
  9 12  1  0
  9 23  1  1
 13 10  2  0
 14 11  1  0
 11 25  1  1
 15 12  1  0
 12 18  1  1
 12 27  1  0
 13 16  1  0
 28 13  1  0
 17 14  1  0
 14 29  1  6
 30 15  1  0
 16 24  1  0
 17 31  1  1
 23 19  1  0
M  CHG  5  20   1  21   1  22   1  23   1  24   1
M  END
$$$$
