
     RDKit          3D

 31 33  0  0  0  0  0  0  0  0999 V2000
  112.3534  -15.1667  -12.4805 C   0  0  1  0  0  0  0  0  0  0  0  0
  110.6034  -12.7108   -8.7209 C   0  0  2  0  0  0  0  0  0  0  0  0
  113.1094  -12.2641   -7.1787 C   0  0  2  0  0  0  0  0  0  0  0  0
  113.6389  -14.8068  -13.1568 C   0  0  1  0  0  0  0  0  0  0  0  0
  109.9500  -12.8873  -10.0412 C   0  0  0  0  0  0  0  0  0  0  0  0
  113.4520  -13.2069   -6.0468 C   0  0  1  0  0  0  0  0  0  0  0  0
  113.6188  -13.2980  -13.3990 C   0  0  0  0  0  0  0  0  0  0  0  0
  109.7837  -14.2972  -10.4793 C   0  0  1  0  0  0  0  0  0  0  0  0
  113.4477  -12.4960   -4.7097 C   0  0  2  0  0  0  0  0  0  0  0  0
  112.4854  -13.0513  -14.3295 C   0  0  0  0  0  0  0  0  0  0  0  0
  111.1519  -14.9300  -10.5025 C   0  0  2  0  0  0  0  0  0  0  0  0
  113.3748  -11.0053   -4.8951 C   0  0  1  0  0  0  0  0  0  0  0  0
  111.4309  -13.8519  -14.3414 C   0  0  0  0  0  0  0  0  0  0  0  0
  111.7773  -14.9158   -9.1546 C   0  0  1  0  0  0  0  0  0  0  0  0
  112.2004  -10.6826   -5.7558 C   0  0  0  0  0  0  0  0  0  0  0  0
  110.3163  -13.5535  -15.3028 C   0  0  0  0  0  0  0  0  0  0  0  0
  111.6847  -13.6703   -8.3734 C   0  0  1  0  0  0  0  0  0  0  0  0
  113.1087  -10.3922   -3.5174 C   0  0  0  0  0  0  0  0  0  0  0  0
  114.5109  -14.0961   -3.2867 C   0  0  0  0  0  0  0  0  0  0  0  0
  109.5361  -12.6796   -7.7082 N   0  0  0  0  0  4  0  0  0  0  0  0
  114.8204  -15.2454  -12.5005 N   0  0  0  0  0  4  0  0  0  0  0  0
  108.9289  -15.0895   -9.6303 N   0  0  0  0  0  4  0  0  0  0  0  0
  114.6140  -12.8012   -3.9161 N   0  0  0  0  0  4  0  0  0  0  0  0
  109.6334  -12.3440  -14.9652 N   0  0  0  0  0  4  0  0  0  0  0  0
  111.9996  -14.3717  -11.4321 O   0  0  0  0  0  0  0  0  0  0  0  0
  112.6408  -14.3387   -6.0301 O   0  0  0  0  0  0  0  0  0  0  0  0
  114.5760  -10.4915   -5.3617 O   0  0  0  0  0  0  0  0  0  0  0  0
  111.3406  -14.9515  -13.4879 O   0  0  0  0  0  0  0  0  0  0  0  0
  111.3137  -16.0392   -8.4238 O   0  0  0  0  0  0  0  0  0  0  0  0
  112.0413  -11.4380   -6.8782 O   0  0  0  0  0  0  0  0  0  0  0  0
  112.9238  -13.0089   -8.3194 O   0  0  0  0  0  0  0  0  0  0  0  0
  1  4  1  0
  1 25  1  1
  1 28  1  0
  2  5  1  0
 17  2  1  0
  2 20  1  1
  3  6  1  0
  3 30  1  0
  3 31  1  6
  4  7  1  0
  4 21  1  1
  5  8  1  0
  6  9  1  0
  6 26  1  1
  7 10  1  0
 11  8  1  0
  8 22  1  1
  9 12  1  0
  9 23  1  6
 13 10  2  0
 14 11  1  0
 11 25  1  6
 15 12  1  0
 12 18  1  1
 12 27  1  0
 13 16  1  0
 28 13  1  0
 17 14  1  0
 14 29  1  1
 30 15  1  0
 16 24  1  0
 17 31  1  6
 23 19  1  0
M  CHG  5  20   1  21   1  22   1  23   1  24   1
M  END
$$$$
