
     RDKit          3D

 31 33  0  0  0  0  0  0  0  0999 V2000
  109.8122  -11.6335  -10.8821 C   0  0  1  0  0  0  0  0  0  0  0  0
  109.2510  -15.2431   -7.7798 C   0  0  2  0  0  0  0  0  0  0  0  0
  112.2947  -13.4554   -7.0269 C   0  0  2  0  0  0  0  0  0  0  0  0
  109.2327  -10.2692  -10.6772 C   0  0  1  0  0  0  0  0  0  0  0  0
  108.2036  -14.9250   -8.7813 C   0  0  0  0  0  0  0  0  0  0  0  0
  112.5844  -12.8106   -5.6899 C   0  0  1  0  0  0  0  0  0  0  0  0
  107.7207  -10.4347  -10.5281 C   0  0  0  0  0  0  0  0  0  0  0  0
  108.6683  -14.8950  -10.1923 C   0  0  1  0  0  0  0  0  0  0  0  0
  113.9945  -12.2618   -5.6305 C   0  0  2  0  0  0  0  0  0  0  0  0
  107.2428  -10.9847  -11.8244 C   0  0  0  0  0  0  0  0  0  0  0  0
  109.7804  -13.8812  -10.2828 C   0  0  2  0  0  0  0  0  0  0  0  0
  114.8068  -12.7422   -6.8015 C   0  0  1  0  0  0  0  0  0  0  0  0
  108.0339  -11.7346  -12.5760 C   0  0  0  0  0  0  0  0  0  0  0  0
  110.9229  -14.2521   -9.4080 C   0  0  1  0  0  0  0  0  0  0  0  0
  114.0808  -12.4104   -8.0613 C   0  0  0  0  0  0  0  0  0  0  0  0
  107.4969  -12.2625  -13.8755 C   0  0  0  0  0  0  0  0  0  0  0  0
  110.6147  -14.7123   -8.0429 C   0  0  1  0  0  0  0  0  0  0  0  0
  116.1107  -11.9394   -6.8053 C   0  0  0  0  0  0  0  0  0  0  0  0
  113.8420  -12.4663   -3.2534 C   0  0  0  0  0  0  0  0  0  0  0  0
  109.2450  -16.7027   -7.5929 N   0  0  0  0  0  4  0  0  0  0  0  0
  109.8116   -9.5089   -9.6256 N   0  0  0  0  0  4  0  0  0  0  0  0
  109.1603  -16.1574  -10.6858 N   0  0  0  0  0  4  0  0  0  0  0  0
  114.6818  -12.6301   -4.4159 N   0  0  0  0  0  4  0  0  0  0  0  0
  108.3290  -11.9010  -14.9800 N   0  0  0  0  0  4  0  0  0  0  0  0
  109.3722  -12.5932  -10.0208 O   0  0  0  0  0  0  0  0  0  0  0  0
  111.6417  -11.8447   -5.3472 O   0  0  0  0  0  0  0  0  0  0  0  0
  115.1366  -14.0838   -6.6755 O   0  0  0  0  0  0  0  0  0  0  0  0
  109.3384  -12.0373  -12.1856 O   0  0  0  0  0  0  0  0  0  0  0  0
  111.7536  -15.1666  -10.1041 O   0  0  0  0  0  0  0  0  0  0  0  0
  112.7498  -12.6991   -8.0920 O   0  0  0  0  0  0  0  0  0  0  0  0
  110.9504  -13.7370   -7.0880 O   0  0  0  0  0  0  0  0  0  0  0  0
  1  4  1  0
  1 25  1  1
  1 28  1  0
  2  5  1  0
 17  2  1  0
  2 20  1  6
  3  6  1  0
  3 30  1  0
  3 31  1  6
  4  7  1  0
  4 21  1  1
  5  8  1  0
  6  9  1  0
  6 26  1  6
  7 10  1  0
 11  8  1  0
  8 22  1  1
  9 12  1  0
  9 23  1  1
 13 10  2  0
 14 11  1  0
 11 25  1  1
 15 12  1  0
 12 18  1  6
 12 27  1  0
 13 16  1  0
 28 13  1  0
 17 14  1  0
 14 29  1  6
 30 15  1  0
 16 24  1  0
 17 31  1  1
 23 19  1  0
M  CHG  5  20   1  21   1  22   1  23   1  24   1
M  END
$$$$
