
     RDKit          3D

 31 33  0  0  0  0  0  0  0  0999 V2000
  113.4848  -12.2216   -9.7131 C   0  0  1  0  0  0  0  0  0  0  0  0
  112.1481  -13.5864   -5.2853 C   0  0  2  0  0  0  0  0  0  0  0  0
  109.3995  -15.0199   -6.7748 C   0  0  2  0  0  0  0  0  0  0  0  0
  113.5211  -13.1912  -10.8523 C   0  0  1  0  0  0  0  0  0  0  0  0
  113.4397  -12.9454   -5.6345 C   0  0  0  0  0  0  0  0  0  0  0  0
  108.9975  -15.6300   -8.0991 C   0  0  1  0  0  0  0  0  0  0  0  0
  114.3129  -14.4123  -10.3857 C   0  0  0  0  0  0  0  0  0  0  0  0
  113.3271  -11.6536   -6.3599 C   0  0  1  0  0  0  0  0  0  0  0  0
  107.4971  -15.8100   -8.1963 C   0  0  2  0  0  0  0  0  0  0  0  0
  115.6897  -13.9223  -10.1102 C   0  0  0  0  0  0  0  0  0  0  0  0
  112.5308  -11.9054   -7.6149 C   0  0  2  0  0  0  0  0  0  0  0  0
  106.8429  -15.5915   -6.8598 C   0  0  1  0  0  0  0  0  0  0  0  0
  115.9014  -12.6710   -9.7327 C   0  0  0  0  0  0  0  0  0  0  0  0
  111.1657  -12.4002   -7.2992 C   0  0  1  0  0  0  0  0  0  0  0  0
  107.2598  -14.2612   -6.3299 C   0  0  0  0  0  0  0  0  0  0  0  0
  117.3133  -12.2323   -9.4684 C   0  0  0  0  0  0  0  0  0  0  0  0
  111.0409  -13.4442   -6.2674 C   0  0  1  0  0  0  0  0  0  0  0  0
  105.3323  -15.5293   -7.1021 C   0  0  0  0  0  0  0  0  0  0  0  0
  106.9272  -17.1281  -10.1076 C   0  0  0  0  0  0  0  0  0  0  0  0
  111.7729  -13.1070   -3.9455 N   0  0  0  0  0  4  0  0  0  0  0  0
  112.2584  -13.5310  -11.4084 N   0  0  0  0  0  4  0  0  0  0  0  0
  112.6808  -10.6034   -5.6123 N   0  0  0  0  0  4  0  0  0  0  0  0
  107.1261  -17.1190   -8.6780 N   0  0  0  0  0  4  0  0  0  0  0  0
  118.1437  -13.3258   -9.0714 N   0  0  0  0  0  4  0  0  0  0  0  0
  113.1563  -12.7520   -8.5017 O   0  0  0  0  0  0  0  0  0  0  0  0
  109.5024  -14.9236   -9.1878 O   0  0  0  0  0  0  0  0  0  0  0  0
  107.0893  -16.6473   -5.9943 O   0  0  0  0  0  0  0  0  0  0  0  0
  114.8497  -11.7677   -9.5791 O   0  0  0  0  0  0  0  0  0  0  0  0
  110.3257  -11.2882   -7.0369 O   0  0  0  0  0  0  0  0  0  0  0  0
  108.5867  -13.9626   -6.4076 O   0  0  0  0  0  0  0  0  0  0  0  0
  110.7330  -14.6913   -6.8382 O   0  0  0  0  0  0  0  0  0  0  0  0
  1  4  1  0
  1 25  1  1
  1 28  1  0
  2  5  1  0
 17  2  1  0
  2 20  1  1
  3  6  1  0
  3 30  1  0
  3 31  1  6
  4  7  1  0
  4 21  1  1
  5  8  1  0
  6  9  1  0
  6 26  1  6
  7 10  1  0
 11  8  1  0
  8 22  1  1
  9 12  1  0
  9 23  1  1
 13 10  2  0
 14 11  1  0
 11 25  1  6
 15 12  1  0
 12 18  1  6
 12 27  1  0
 13 16  1  0
 28 13  1  0
 17 14  1  0
 14 29  1  1
 30 15  1  0
 16 24  1  0
 17 31  1  6
 23 19  1  0
M  CHG  5  20   1  21   1  22   1  23   1  24   1
M  END
$$$$
