
     RDKit          3D

 31 33  0  0  0  0  0  0  0  0999 V2000
  110.5329  -17.2072   -5.7713 C   0  0  1  0  0  0  0  0  0  0  0  0
  112.7923  -12.9749   -5.3590 C   0  0  2  0  0  0  0  0  0  0  0  0
  113.4130  -13.4261   -8.7328 C   0  0  2  0  0  0  0  0  0  0  0  0
  109.7789  -17.4497   -7.0409 C   0  0  1  0  0  0  0  0  0  0  0  0
  112.0021  -13.5841   -4.2610 C   0  0  0  0  0  0  0  0  0  0  0  0
  112.7044  -12.6143   -9.7941 C   0  0  1  0  0  0  0  0  0  0  0  0
  108.7735  -16.3095   -7.1981 C   0  0  0  0  0  0  0  0  0  0  0  0
  112.3988  -14.9671   -3.8904 C   0  0  1  0  0  0  0  0  0  0  0  0
  113.4659  -12.6238  -11.1030 C   0  0  2  0  0  0  0  0  0  0  0  0
  107.8448  -16.4249   -6.0424 C   0  0  0  0  0  0  0  0  0  0  0  0
  112.2860  -15.8193   -5.1289 C   0  0  2  0  0  0  0  0  0  0  0  0
  114.8418  -13.2024  -10.9189 C   0  0  1  0  0  0  0  0  0  0  0  0
  108.2508  -16.9472   -4.8955 C   0  0  0  0  0  0  0  0  0  0  0  0
  113.1880  -15.3322   -6.2046 C   0  0  1  0  0  0  0  0  0  0  0  0
  114.7196  -14.5446  -10.2801 C   0  0  0  0  0  0  0  0  0  0  0  0
  107.2686  -17.0383   -3.7629 C   0  0  0  0  0  0  0  0  0  0  0  0
  113.2298  -13.8808   -6.4538 C   0  0  1  0  0  0  0  0  0  0  0  0
  115.4310  -13.4177  -12.3158 C   0  0  0  0  0  0  0  0  0  0  0  0
  112.3578  -10.8470  -12.2566 C   0  0  0  0  0  0  0  0  0  0  0  0
  113.9199  -12.2610   -4.7390 N   0  0  0  0  0  4  0  0  0  0  0  0
  110.5772  -17.6462   -8.1999 N   0  0  0  0  0  4  0  0  0  0  0  0
  113.7405  -15.0858   -3.3755 N   0  0  0  0  0  4  0  0  0  0  0  0
  113.5975  -11.3061  -11.6770 N   0  0  0  0  0  4  0  0  0  0  0  0
  106.6763  -15.7707   -3.4704 N   0  0  0  0  0  4  0  0  0  0  0  0
  110.9977  -15.9381   -5.5984 O   0  0  0  0  0  0  0  0  0  0  0  0
  111.3786  -13.0033   -9.9676 O   0  0  0  0  0  0  0  0  0  0  0  0
  115.6752  -12.3264  -10.2388 O   0  0  0  0  0  0  0  0  0  0  0  0
  109.5566  -17.4072   -4.7254 O   0  0  0  0  0  0  0  0  0  0  0  0
  114.4816  -15.8749   -5.9971 O   0  0  0  0  0  0  0  0  0  0  0  0
  113.8789  -14.6372   -9.2122 O   0  0  0  0  0  0  0  0  0  0  0  0
  112.5729  -13.5499   -7.6516 O   0  0  0  0  0  0  0  0  0  0  0  0
  1  4  1  0
  1 25  1  6
  1 28  1  0
  2  5  1  0
 17  2  1  0
  2 20  1  1
  3  6  1  0
  3 30  1  0
  3 31  1  1
  4  7  1  0
  4 21  1  6
  5  8  1  0
  6  9  1  0
  6 26  1  6
  7 10  1  0
 11  8  1  0
  8 22  1  6
  9 12  1  0
  9 23  1  1
 13 10  2  0
 14 11  1  0
 11 25  1  6
 15 12  1  0
 12 18  1  6
 12 27  1  0
 13 16  1  0
 28 13  1  0
 17 14  1  0
 14 29  1  1
 30 15  1  0
 16 24  1  0
 17 31  1  6
 23 19  1  0
M  CHG  5  20   1  21   1  22   1  23   1  24   1
M  END
$$$$
