
     RDKit          3D

 31 33  0  0  0  0  0  0  0  0999 V2000
  113.4138  -14.6665   -6.9767 C   0  0  1  0  0  0  0  0  0  0  0  0
  110.0696  -12.0739   -9.2770 C   0  0  2  0  0  0  0  0  0  0  0  0
  107.5962  -13.6174   -7.6005 C   0  0  2  0  0  0  0  0  0  0  0  0
  113.5946  -14.6374   -5.4916 C   0  0  1  0  0  0  0  0  0  0  0  0
  111.5402  -11.8835   -9.3253 C   0  0  0  0  0  0  0  0  0  0  0  0
  107.3508  -14.6269   -6.5014 C   0  0  1  0  0  0  0  0  0  0  0  0
  113.5286  -13.1746   -5.0537 C   0  0  0  0  0  0  0  0  0  0  0  0
  112.3193  -13.0852   -9.7207 C   0  0  1  0  0  0  0  0  0  0  0  0
  105.9716  -15.2427   -6.6090 C   0  0  2  0  0  0  0  0  0  0  0  0
  114.6845  -12.5033   -5.7052 C   0  0  0  0  0  0  0  0  0  0  0  0
  111.9826  -14.1855   -8.7467 C   0  0  2  0  0  0  0  0  0  0  0  0
  105.1263  -14.4947   -7.6030 C   0  0  1  0  0  0  0  0  0  0  0  0
  115.1657  -12.9464   -6.8564 C   0  0  0  0  0  0  0  0  0  0  0  0
  110.5346  -14.5171   -8.7846 C   0  0  1  0  0  0  0  0  0  0  0  0
  105.8586  -14.4200   -8.9001 C   0  0  0  0  0  0  0  0  0  0  0  0
  116.3347  -12.2283   -7.4674 C   0  0  0  0  0  0  0  0  0  0  0  0
  109.5790  -13.3962   -8.8064 C   0  0  1  0  0  0  0  0  0  0  0  0
  103.8658  -15.3305   -7.8422 C   0  0  0  0  0  0  0  0  0  0  0  0
  106.0014  -16.0176   -4.3476 C   0  0  0  0  0  0  0  0  0  0  0  0
  109.5416  -11.7212  -10.6045 N   0  0  0  0  0  4  0  0  0  0  0  0
  112.7186  -15.4759   -4.7509 N   0  0  0  0  0  4  0  0  0  0  0  0
  112.0494  -13.5592  -11.0556 N   0  0  0  0  0  4  0  0  0  0  0  0
  105.2757  -15.2677   -5.3448 N   0  0  0  0  0  4  0  0  0  0  0  0
  117.5627  -12.9237   -7.2404 N   0  0  0  0  0  4  0  0  0  0  0  0
  112.3813  -13.9182   -7.4567 O   0  0  0  0  0  0  0  0  0  0  0  0
  108.3450  -15.6000   -6.4381 O   0  0  0  0  0  0  0  0  0  0  0  0
  104.7285  -13.2620   -7.1065 O   0  0  0  0  0  0  0  0  0  0  0  0
  114.6122  -14.0530   -7.5005 O   0  0  0  0  0  0  0  0  0  0  0  0
  110.3035  -15.4353   -9.8404 O   0  0  0  0  0  0  0  0  0  0  0  0
  107.1726  -14.0656   -8.8388 O   0  0  0  0  0  0  0  0  0  0  0  0
  108.9237  -13.2607   -7.5702 O   0  0  0  0  0  0  0  0  0  0  0  0
  1  4  1  0
  1 25  1  1
  1 28  1  0
  2  5  1  0
 17  2  1  0
  2 20  1  6
  3  6  1  0
  3 30  1  0
  3 31  1  6
  4  7  1  0
  4 21  1  1
  5  8  1  0
  6  9  1  0
  6 26  1  6
  7 10  1  0
 11  8  1  0
  8 22  1  6
  9 12  1  0
  9 23  1  1
 13 10  2  0
 14 11  1  0
 11 25  1  1
 15 12  1  0
 12 18  1  6
 12 27  1  0
 13 16  1  0
 28 13  1  0
 17 14  1  0
 14 29  1  6
 30 15  1  0
 16 24  1  0
 17 31  1  1
 23 19  1  0
M  CHG  5  20   1  21   1  22   1  23   1  24   1
M  END
$$$$
