
     RDKit          3D

 31 33  0  0  0  0  0  0  0  0999 V2000
  108.0219    4.2832  -13.1943 C   0  0  1  0  0  0  0  0  0  0  0  0
  103.4256    4.1899  -11.8682 C   0  0  2  0  0  0  0  0  0  0  0  0
  103.9458    1.5521   -9.7690 C   0  0  2  0  0  0  0  0  0  0  0  0
  109.1592    3.4599  -12.6765 C   0  0  1  0  0  0  0  0  0  0  0  0
  104.1522    5.1689  -12.7137 C   0  0  0  0  0  0  0  0  0  0  0  0
  104.9816    0.9971   -8.8169 C   0  0  1  0  0  0  0  0  0  0  0  0
  109.1260    3.5464  -11.1510 C   0  0  0  0  0  0  0  0  0  0  0  0
  104.8563    4.5893  -13.8866 C   0  0  1  0  0  0  0  0  0  0  0  0
  104.5767   -0.3613   -8.2840 C   0  0  2  0  0  0  0  0  0  0  0  0
  109.3613    4.9770  -10.8202 C   0  0  0  0  0  0  0  0  0  0  0  0
  105.8205    3.5517  -13.3704 C   0  0  2  0  0  0  0  0  0  0  0  0
  103.1443   -0.6665   -8.6263 C   0  0  1  0  0  0  0  0  0  0  0  0
  108.9986    5.9355  -11.6586 C   0  0  0  0  0  0  0  0  0  0  0  0
  105.1096    2.4635  -12.6504 C   0  0  1  0  0  0  0  0  0  0  0  0
  102.9564   -0.5131  -10.0978 C   0  0  0  0  0  0  0  0  0  0  0  0
  109.2616    7.3625  -11.2712 C   0  0  0  0  0  0  0  0  0  0  0  0
  104.0519    2.8518  -11.7013 C   0  0  1  0  0  0  0  0  0  0  0  0
  102.9050   -2.1412   -8.2905 C   0  0  0  0  0  0  0  0  0  0  0  0
  106.1158   -0.3139   -6.4552 C   0  0  0  0  0  0  0  0  0  0  0  0
  102.0509    4.1037  -12.3863 N   0  0  0  0  0  4  0  0  0  0  0  0
  109.2144    2.1224  -13.1530 N   0  0  0  0  0  4  0  0  0  0  0  0
  103.9893    3.9649  -14.8550 N   0  0  0  0  0  4  0  0  0  0  0  0
  104.7367   -0.4655   -6.8534 N   0  0  0  0  0  4  0  0  0  0  0  0
  108.8557    7.6314   -9.9273 N   0  0  0  0  0  4  0  0  0  0  0  0
  106.8216    4.0750  -12.5841 O   0  0  0  0  0  0  0  0  0  0  0  0
  106.2585    0.9720   -9.3722 O   0  0  0  0  0  0  0  0  0  0  0  0
  102.2668    0.0890   -7.8624 O   0  0  0  0  0  0  0  0  0  0  0  0
  108.3857    5.6449  -12.8774 O   0  0  0  0  0  0  0  0  0  0  0  0
  104.6533    1.5111  -13.5968 O   0  0  0  0  0  0  0  0  0  0  0  0
  103.4870    0.6051  -10.6669 O   0  0  0  0  0  0  0  0  0  0  0  0
  104.4691    2.6718  -10.3711 O   0  0  0  0  0  0  0  0  0  0  0  0
  1  4  1  0
  1 25  1  1
  1 28  1  0
  2  5  1  0
 17  2  1  0
  2 20  1  6
  3  6  1  0
  3 30  1  0
  3 31  1  6
  4  7  1  0
  4 21  1  1
  5  8  1  0
  6  9  1  0
  6 26  1  6
  7 10  1  0
 11  8  1  0
  8 22  1  6
  9 12  1  0
  9 23  1  1
 13 10  2  0
 14 11  1  0
 11 25  1  1
 15 12  1  0
 12 18  1  1
 12 27  1  0
 13 16  1  0
 28 13  1  0
 17 14  1  0
 14 29  1  6
 30 15  1  0
 16 24  1  0
 17 31  1  1
 23 19  1  0
M  CHG  5  20   1  21   1  22   1  23   1  24   1
M  END
$$$$
