
     RDKit          3D

 68 69  0  0  0  0  0  0  0  0999 V2000
  -17.0266  -28.3254   19.8315 O   0  0  0  0  0  0  0  0  0  0  0  0
  -16.0489  -24.9057   20.6039 C   0  0  2  0  0  0  0  0  0  0  0  0
  -17.4761  -24.9820   22.6042 O   0  0  0  0  0  0  0  0  0  0  0  0
  -18.5265  -24.9752   20.3974 C   0  0  1  0  0  0  0  0  0  0  0  0
  -18.5322  -26.5118   20.3899 C   0  0  2  0  0  0  0  0  0  0  0  0
   -1.4262  -29.7019    7.9446 C   0  0  0  0  0  0  0  0  0  0  0  0
   -1.8379  -29.7386    9.4070 C   0  0  0  0  0  0  0  0  0  0  0  0
   -2.9402  -30.7577    9.7124 C   0  0  0  0  0  0  0  0  0  0  0  0
   -3.3895  -30.7438   11.1762 C   0  0  0  0  0  0  0  0  0  0  0  0
   -4.8976  -30.9671   11.3614 C   0  0  0  0  0  0  0  0  0  0  0  0
   -5.3982  -31.0035   12.8098 C   0  0  0  0  0  0  0  0  0  0  0  0
   -6.9226  -30.9197   12.9283 C   0  0  0  0  0  0  0  0  0  0  0  0
   -7.3912  -31.0906   14.3771 C   0  0  0  0  0  0  0  0  0  0  0  0
   -7.6091  -32.5698   14.7008 C   0  0  0  0  0  0  0  0  0  0  0  0
   -8.6390  -32.8241   15.8039 C   0  0  0  0  0  0  0  0  0  0  0  0
   -9.6735  -31.7146   15.9999 C   0  0  0  0  0  0  0  0  0  0  0  0
  -11.0830  -32.1381   16.4194 C   0  0  0  0  0  0  0  0  0  0  0  0
  -12.0891  -31.0119   16.6803 C   0  0  0  0  0  0  0  0  0  0  0  0
  -13.5383  -31.4203   16.9739 C   0  0  0  0  0  0  0  0  0  0  0  0
  -14.6126  -30.3662   16.6263 C   0  0  1  0  0  0  0  0  0  0  0  0
  -15.3806  -30.7973   15.5075 O   0  0  0  0  0  0  0  0  0  0  0  0
  -15.5269  -30.0965   17.8490 C   0  0  1  0  0  0  0  0  0  0  0  0
  -16.0986  -31.3403   18.2756 O   0  0  0  0  0  0  0  0  0  0  0  0
  -14.8721  -29.3200   19.0355 C   0  0  2  0  0  0  0  0  0  0  0  0
  -15.8655  -29.0855   20.1998 C   0  0  0  0  0  0  0  0  0  0  0  0
  -17.0910  -27.0622   20.5059 C   0  0  2  0  0  0  0  0  0  0  0  0
  -19.1916  -26.9329   19.1799 O   0  0  0  0  0  0  0  0  0  0  0  0
  -19.8091  -24.4825   20.8092 O   0  0  0  0  0  0  0  0  0  0  0  0
  -16.1830  -26.1567   19.8911 O   0  0  0  0  0  0  0  0  0  0  0  0
  -14.8370  -24.9762   21.5521 C   0  0  0  0  0  0  0  0  0  0  0  0
  -13.6042  -24.6931   20.8888 O   0  0  0  0  0  0  0  0  0  0  0  0
  -17.3800  -24.4406   21.2690 C   0  0  2  0  0  0  0  0  0  0  0  0
  -17.9630  -24.0484   23.5754 C   0  0  0  0  0  0  0  0  0  0  0  0
  -17.2086  -22.7463   23.4769 C   0  0  0  0  0  0  0  0  0  0  0  0
  -15.8992  -22.6387   23.9676 C   0  0  0  0  0  0  0  0  0  0  0  0
  -15.1865  -21.4440   23.8360 C   0  0  0  0  0  0  0  0  0  0  0  0
  -15.7677  -20.3377   23.2093 C   0  0  0  0  0  0  0  0  0  0  0  0
  -15.0104  -19.0495   23.0793 C   0  0  0  0  0  0  0  0  0  0  0  0
  -17.0844  -20.4334   22.7446 C   0  0  0  0  0  0  0  0  0  0  0  0
  -17.7979  -21.6264   22.8745 C   0  0  0  0  0  0  0  0  0  0  0  0
  -14.2426  -28.0589   18.6180 N   0  0  0  0  0  0  0  0  0  0  0  0
  -12.9407  -28.0055   18.1763 C   0  0  0  0  0  0  0  0  0  0  0  0
  -12.2715  -29.0171   17.9953 O   0  0  0  0  0  0  0  0  0  0  0  0
  -12.4333  -26.5941   17.9507 C   0  0  0  0  0  0  0  0  0  0  0  0
  -13.2558  -25.8500   16.8974 C   0  0  0  0  0  0  0  0  0  0  0  0
  -12.5102  -25.7353   15.5614 C   0  0  0  0  0  0  0  0  0  0  0  0
  -11.2375  -24.8879   15.6539 C   0  0  0  0  0  0  0  0  0  0  0  0
   -9.9338  -25.6657   15.4187 C   0  0  0  0  0  0  0  0  0  0  0  0
   -8.6892  -24.7746   15.4493 C   0  0  0  0  0  0  0  0  0  0  0  0
   -8.6763  -23.8587   16.6750 C   0  0  0  0  0  0  0  0  0  0  0  0
   -7.6915  -22.7022   16.4849 C   0  0  0  0  0  0  0  0  0  0  0  0
   -6.3237  -23.1956   16.0081 C   0  0  0  0  0  0  0  0  0  0  0  0
   -5.3347  -22.0523   15.7546 C   0  0  0  0  0  0  0  0  0  0  0  0
   -5.1600  -21.1308   16.9658 C   0  0  0  0  0  0  0  0  0  0  0  0
   -3.8971  -21.4852   17.7546 C   0  0  0  0  0  0  0  0  0  0  0  0
   -2.6449  -20.8914   17.1036 C   0  0  0  0  0  0  0  0  0  0  0  0
   -1.4858  -20.8066   18.1002 C   0  0  0  0  0  0  0  0  0  0  0  0
   -0.7607  -19.4643   18.0050 C   0  0  0  0  0  0  0  0  0  0  0  0
   -0.7105  -18.6932   19.3266 C   0  0  0  0  0  0  0  0  0  0  0  0
    0.5277  -17.8325   19.6000 C   0  0  0  0  0  0  0  0  0  0  0  0
    0.7761  -17.4594   21.0660 C   0  0  0  0  0  0  0  0  0  0  0  0
    2.1523  -16.8497   21.3335 C   0  0  0  0  0  0  0  0  0  0  0  0
    2.5446  -16.8584   22.8155 C   0  0  0  0  0  0  0  0  0  0  0  0
    1.9820  -15.7173   23.6690 C   0  0  0  0  0  0  0  0  0  0  0  0
    2.8873  -15.3274   24.8414 C   0  0  0  0  0  0  0  0  0  0  0  0
    2.8276  -13.8211   25.1132 C   0  0  0  0  0  0  0  0  0  0  0  0
    3.5219  -13.4187   26.4154 C   0  0  0  0  0  0  0  0  0  0  0  0
    3.6723  -11.9148   26.5807 C   0  0  0  0  0  0  0  0  0  0  0  0
 25  1  1  0
 26  1  1  6
  2 29  1  0
  2 30  1  1
 32  2  1  0
 32  3  1  1
  3 33  1  0
  5  4  1  0
  4 28  1  1
  4 32  1  0
 26  5  1  0
  5 27  1  6
  7  6  1  0
  8  7  1  0
  9  8  1  0
 10  9  1  0
 11 10  1  0
 12 11  1  0
 13 12  1  0
 14 13  1  0
 15 14  1  0
 16 15  1  0
 17 16  1  0
 18 17  1  0
 19 18  1  0
 20 19  1  0
 20 21  1  6
 22 20  1  0
 22 23  1  1
 24 22  1  0
 24 25  1  1
 24 41  1  0
 26 29  1  0
 30 31  1  0
 33 34  1  0
 34 35  2  0
 34 40  1  0
 35 36  1  0
 36 37  2  0
 37 38  1  0
 37 39  1  0
 39 40  2  0
 41 42  1  0
 42 43  2  0
 42 44  1  0
 44 45  1  0
 45 46  1  0
 46 47  1  0
 47 48  1  0
 48 49  1  0
 49 50  1  0
 50 51  1  0
 51 52  1  0
 52 53  1  0
 53 54  1  0
 54 55  1  0
 55 56  1  0
 56 57  1  0
 57 58  1  0
 58 59  1  0
 59 60  1  0
 60 61  1  0
 61 62  1  0
 62 63  1  0
 63 64  1  0
 64 65  1  0
 65 66  1  0
 66 67  1  0
 67 68  1  0
M  END
$$$$
