
     RDKit          3D

 68 69  0  0  0  0  0  0  0  0999 V2000
  -15.3050  -25.8186   20.9889 O   0  0  0  0  0  0  0  0  0  0  0  0
  -18.6542  -25.4843   22.3738 C   0  0  2  0  0  0  0  0  0  0  0  0
  -17.6637  -24.9396   24.5571 O   0  0  0  0  0  0  0  0  0  0  0  0
  -17.4415  -27.2131   23.6879 C   0  0  1  0  0  0  0  0  0  0  0  0
  -16.1010  -26.8384   23.0369 C   0  0  2  0  0  0  0  0  0  0  0  0
   -3.0296  -19.2378   25.0390 C   0  0  0  0  0  0  0  0  0  0  0  0
   -4.3455  -18.6249   24.5895 C   0  0  0  0  0  0  0  0  0  0  0  0
   -4.8797  -17.5463   25.5373 C   0  0  0  0  0  0  0  0  0  0  0  0
   -6.1971  -16.9244   25.0662 C   0  0  0  0  0  0  0  0  0  0  0  0
   -6.9248  -17.7544   23.9984 C   0  0  0  0  0  0  0  0  0  0  0  0
   -6.4800  -17.5233   22.5497 C   0  0  0  0  0  0  0  0  0  0  0  0
   -7.2493  -18.3735   21.5348 C   0  0  0  0  0  0  0  0  0  0  0  0
   -6.9858  -17.9188   20.0955 C   0  0  0  0  0  0  0  0  0  0  0  0
   -8.2102  -18.1805   19.2163 C   0  0  0  0  0  0  0  0  0  0  0  0
   -8.0067  -19.2792   18.1706 C   0  0  0  0  0  0  0  0  0  0  0  0
   -9.2677  -20.0532   17.7826 C   0  0  0  0  0  0  0  0  0  0  0  0
   -9.3149  -21.5399   18.1424 C   0  0  0  0  0  0  0  0  0  0  0  0
  -10.4205  -22.3712   17.4826 C   0  0  0  0  0  0  0  0  0  0  0  0
  -10.8172  -23.6831   18.1713 C   0  0  0  0  0  0  0  0  0  0  0  0
  -12.1706  -24.2848   17.7329 C   0  0  1  0  0  0  0  0  0  0  0  0
  -12.0205  -25.6698   17.4380 O   0  0  0  0  0  0  0  0  0  0  0  0
  -13.2436  -24.0703   18.8312 C   0  0  1  0  0  0  0  0  0  0  0  0
  -13.6195  -22.6866   18.8391 O   0  0  0  0  0  0  0  0  0  0  0  0
  -14.4887  -25.0110   18.7649 C   0  0  2  0  0  0  0  0  0  0  0  0
  -15.4363  -24.8124   19.9731 C   0  0  0  0  0  0  0  0  0  0  0  0
  -16.2922  -25.6882   22.0200 C   0  0  2  0  0  0  0  0  0  0  0  0
  -15.5693  -28.0326   22.4307 O   0  0  0  0  0  0  0  0  0  0  0  0
  -17.2106  -27.8652   24.9444 O   0  0  0  0  0  0  0  0  0  0  0  0
  -17.5881  -25.7734   21.4406 O   0  0  0  0  0  0  0  0  0  0  0  0
  -19.0523  -24.0003   22.2632 C   0  0  0  0  0  0  0  0  0  0  0  0
  -19.1045  -23.5456   20.9103 O   0  0  0  0  0  0  0  0  0  0  0  0
  -18.3450  -25.9777   23.8201 C   0  0  2  0  0  0  0  0  0  0  0  0
  -18.5423  -24.0661   25.2760 C   0  0  0  0  0  0  0  0  0  0  0  0
  -17.7483  -23.0915   26.1091 C   0  0  0  0  0  0  0  0  0  0  0  0
  -16.6859  -22.3688   25.5471 C   0  0  0  0  0  0  0  0  0  0  0  0
  -15.9798  -21.4344   26.3091 C   0  0  0  0  0  0  0  0  0  0  0  0
  -16.3245  -21.2032   27.6441 C   0  0  0  0  0  0  0  0  0  0  0  0
  -15.5591  -20.2112   28.4688 C   0  0  0  0  0  0  0  0  0  0  0  0
  -17.3655  -21.9438   28.2156 C   0  0  0  0  0  0  0  0  0  0  0  0
  -18.0727  -22.8774   27.4557 C   0  0  0  0  0  0  0  0  0  0  0  0
  -14.1297  -26.4273   18.6042 N   0  0  0  0  0  0  0  0  0  0  0  0
  -13.3854  -26.8740   17.5368 C   0  0  0  0  0  0  0  0  0  0  0  0
  -13.2643  -26.2193   16.5068 O   0  0  0  0  0  0  0  0  0  0  0  0
  -12.7530  -28.2337   17.7638 C   0  0  0  0  0  0  0  0  0  0  0  0
  -12.3793  -28.9197   16.4487 C   0  0  0  0  0  0  0  0  0  0  0  0
  -10.9718  -28.5314   15.9774 C   0  0  0  0  0  0  0  0  0  0  0  0
  -10.7303  -28.8305   14.4946 C   0  0  0  0  0  0  0  0  0  0  0  0
   -9.9084  -27.7650   13.7536 C   0  0  0  0  0  0  0  0  0  0  0  0
   -8.4877  -28.2276   13.4195 C   0  0  0  0  0  0  0  0  0  0  0  0
   -8.1777  -28.0787   11.9285 C   0  0  0  0  0  0  0  0  0  0  0  0
   -7.4537  -29.3165   11.3928 C   0  0  0  0  0  0  0  0  0  0  0  0
   -7.1234  -29.1798    9.9048 C   0  0  0  0  0  0  0  0  0  0  0  0
   -7.1067  -30.5268    9.1735 C   0  0  0  0  0  0  0  0  0  0  0  0
   -5.7853  -31.2835    9.3406 C   0  0  0  0  0  0  0  0  0  0  0  0
   -5.1274  -31.5566    7.9858 C   0  0  0  0  0  0  0  0  0  0  0  0
   -3.6025  -31.4502    8.0720 C   0  0  0  0  0  0  0  0  0  0  0  0
   -2.9570  -31.5632    6.6884 C   0  0  0  0  0  0  0  0  0  0  0  0
   -3.5844  -32.6890    5.8665 C   0  0  0  0  0  0  0  0  0  0  0  0
   -2.7772  -33.9897    5.8813 C   0  0  0  0  0  0  0  0  0  0  0  0
   -1.2520  -33.8802    5.7783 C   0  0  0  0  0  0  0  0  0  0  0  0
   -0.7177  -32.9573    4.6769 C   0  0  0  0  0  0  0  0  0  0  0  0
    0.4796  -33.5216    3.9118 C   0  0  0  0  0  0  0  0  0  0  0  0
    0.9635  -32.6089    2.7792 C   0  0  0  0  0  0  0  0  0  0  0  0
    2.3489  -32.9229    2.2051 C   0  0  0  0  0  0  0  0  0  0  0  0
    3.3739  -31.8088    2.4384 C   0  0  0  0  0  0  0  0  0  0  0  0
    4.8048  -32.3201    2.2458 C   0  0  0  0  0  0  0  0  0  0  0  0
    5.4978  -31.7167    1.0229 C   0  0  0  0  0  0  0  0  0  0  0  0
    4.5302  -31.1277    0.0088 C   0  0  0  0  0  0  0  0  0  0  0  0
 25  1  1  0
 26  1  1  6
  2 29  1  0
  2 30  1  1
 32  2  1  0
 32  3  1  1
  3 33  1  0
  5  4  1  0
  4 28  1  1
  4 32  1  0
 26  5  1  0
  5 27  1  6
  7  6  1  0
  8  7  1  0
  9  8  1  0
 10  9  1  0
 11 10  1  0
 12 11  1  0
 13 12  1  0
 14 13  1  0
 15 14  1  0
 16 15  1  0
 17 16  1  0
 18 17  1  0
 19 18  1  0
 20 19  1  0
 20 21  1  1
 22 20  1  0
 22 23  1  6
 24 22  1  0
 24 25  1  1
 24 41  1  0
 26 29  1  0
 30 31  1  0
 33 34  1  0
 34 35  2  0
 34 40  1  0
 35 36  1  0
 36 37  2  0
 37 38  1  0
 37 39  1  0
 39 40  2  0
 41 42  1  0
 42 43  2  0
 42 44  1  0
 44 45  1  0
 45 46  1  0
 46 47  1  0
 47 48  1  0
 48 49  1  0
 49 50  1  0
 50 51  1  0
 51 52  1  0
 52 53  1  0
 53 54  1  0
 54 55  1  0
 55 56  1  0
 56 57  1  0
 57 58  1  0
 58 59  1  0
 59 60  1  0
 60 61  1  0
 61 62  1  0
 62 63  1  0
 63 64  1  0
 64 65  1  0
 65 66  1  0
 66 67  1  0
 67 68  1  0
M  END
$$$$
