
     RDKit          3D

 68 69  0  0  0  0  0  0  0  0999 V2000
  -15.0815  -27.8378   21.9886 O   0  0  0  0  0  0  0  0  0  0  0  0
  -16.5902  -24.5273   22.0957 C   0  0  2  0  0  0  0  0  0  0  0  0
  -18.2490  -25.3688   23.7032 O   0  0  0  0  0  0  0  0  0  0  0  0
  -18.3362  -26.1518   21.3896 C   0  0  1  0  0  0  0  0  0  0  0  0
  -17.4421  -27.3469   21.7552 C   0  0  2  0  0  0  0  0  0  0  0  0
   -5.3708  -29.1318   13.0800 C   0  0  0  0  0  0  0  0  0  0  0  0
   -6.2052  -29.5197   11.8706 C   0  0  0  0  0  0  0  0  0  0  0  0
   -6.6885  -28.3233   11.0448 C   0  0  0  0  0  0  0  0  0  0  0  0
   -7.4606  -28.7283    9.7861 C   0  0  0  0  0  0  0  0  0  0  0  0
   -8.0226  -27.5370    8.9964 C   0  0  0  0  0  0  0  0  0  0  0  0
   -9.4788  -27.1613    9.2933 C   0  0  0  0  0  0  0  0  0  0  0  0
   -9.6265  -26.1654   10.4470 C   0  0  0  0  0  0  0  0  0  0  0  0
  -10.9778  -26.3103   11.1547 C   0  0  0  0  0  0  0  0  0  0  0  0
  -10.9483  -25.6154   12.5173 C   0  0  0  0  0  0  0  0  0  0  0  0
  -12.2760  -25.6694   13.2764 C   0  0  0  0  0  0  0  0  0  0  0  0
  -12.2492  -26.4634   14.5835 C   0  0  0  0  0  0  0  0  0  0  0  0
  -13.1605  -27.6893   14.6766 C   0  0  0  0  0  0  0  0  0  0  0  0
  -14.4605  -27.5196   15.4704 C   0  0  0  0  0  0  0  0  0  0  0  0
  -14.3331  -27.2458   16.9743 C   0  0  0  0  0  0  0  0  0  0  0  0
  -14.1552  -28.4935   17.8675 C   0  0  1  0  0  0  0  0  0  0  0  0
  -12.8183  -28.9755   17.7784 O   0  0  0  0  0  0  0  0  0  0  0  0
  -14.5251  -28.1684   19.3376 C   0  0  1  0  0  0  0  0  0  0  0  0
  -14.8371  -29.3945   20.0124 O   0  0  0  0  0  0  0  0  0  0  0  0
  -13.4860  -27.3152   20.1323 C   0  0  2  0  0  0  0  0  0  0  0  0
  -13.8218  -27.2424   21.6420 C   0  0  0  0  0  0  0  0  0  0  0  0
  -16.0808  -26.8602   22.3057 C   0  0  2  0  0  0  0  0  0  0  0  0
  -17.3046  -28.1581   20.5722 O   0  0  0  0  0  0  0  0  0  0  0  0
  -19.7132  -26.5530   21.3863 O   0  0  0  0  0  0  0  0  0  0  0  0
  -15.7343  -25.6225   21.6969 O   0  0  0  0  0  0  0  0  0  0  0  0
  -15.9448  -23.7647   23.2681 C   0  0  0  0  0  0  0  0  0  0  0  0
  -14.5193  -23.8546   23.2628 O   0  0  0  0  0  0  0  0  0  0  0  0
  -18.0680  -24.9658   22.3284 C   0  0  2  0  0  0  0  0  0  0  0  0
  -19.1352  -24.5220   24.4444 C   0  0  0  0  0  0  0  0  0  0  0  0
  -19.2971  -25.0356   25.8531 C   0  0  0  0  0  0  0  0  0  0  0  0
  -18.6567  -24.3980   26.9256 C   0  0  0  0  0  0  0  0  0  0  0  0
  -18.8432  -24.8491   28.2348 C   0  0  0  0  0  0  0  0  0  0  0  0
  -19.6747  -25.9422   28.4959 C   0  0  0  0  0  0  0  0  0  0  0  0
  -19.8655  -26.4377   29.8988 C   0  0  0  0  0  0  0  0  0  0  0  0
  -20.2920  -26.5980   27.4246 C   0  0  0  0  0  0  0  0  0  0  0  0
  -20.1075  -26.1485   26.1158 C   0  0  0  0  0  0  0  0  0  0  0  0
  -13.2972  -25.9705   19.5692 N   0  0  0  0  0  0  0  0  0  0  0  0
  -12.0472  -25.4600   19.3051 C   0  0  0  0  0  0  0  0  0  0  0  0
  -11.0567  -26.1768   19.2106 O   0  0  0  0  0  0  0  0  0  0  0  0
  -12.0268  -23.9508   19.1549 C   0  0  0  0  0  0  0  0  0  0  0  0
  -10.7126  -23.3427   19.6475 C   0  0  0  0  0  0  0  0  0  0  0  0
   -9.6769  -23.2232   18.5219 C   0  0  0  0  0  0  0  0  0  0  0  0
  -10.2893  -23.3590   17.1244 C   0  0  0  0  0  0  0  0  0  0  0  0
   -9.2770  -23.2725   15.9722 C   0  0  0  0  0  0  0  0  0  0  0  0
   -9.0732  -24.6073   15.2505 C   0  0  0  0  0  0  0  0  0  0  0  0
   -7.8101  -24.5992   14.3869 C   0  0  0  0  0  0  0  0  0  0  0  0
   -6.9553  -25.8407   14.6541 C   0  0  0  0  0  0  0  0  0  0  0  0
   -6.5765  -26.5576   13.3563 C   0  0  0  0  0  0  0  0  0  0  0  0
   -6.1476  -25.5910   12.2467 C   0  0  0  0  0  0  0  0  0  0  0  0
   -7.1203  -25.5665   11.0636 C   0  0  0  0  0  0  0  0  0  0  0  0
   -6.3791  -25.7184    9.7330 C   0  0  0  0  0  0  0  0  0  0  0  0
   -5.8604  -27.1460    9.5404 C   0  0  0  0  0  0  0  0  0  0  0  0
   -5.3130  -27.3538    8.1259 C   0  0  0  0  0  0  0  0  0  0  0  0
   -3.8457  -27.7815    8.1490 C   0  0  0  0  0  0  0  0  0  0  0  0
   -3.6002  -29.1814    7.5799 C   0  0  0  0  0  0  0  0  0  0  0  0
   -4.2830  -30.3619    8.2790 C   0  0  0  0  0  0  0  0  0  0  0  0
   -4.7108  -31.5226    7.3734 C   0  0  0  0  0  0  0  0  0  0  0  0
   -3.7474  -32.7097    7.3783 C   0  0  0  0  0  0  0  0  0  0  0  0
   -3.9796  -33.6871    6.2203 C   0  0  0  0  0  0  0  0  0  0  0  0
   -4.4227  -35.1011    6.6095 C   0  0  0  0  0  0  0  0  0  0  0  0
   -3.7949  -36.1982    5.7443 C   0  0  0  0  0  0  0  0  0  0  0  0
   -2.3191  -36.4080    6.0965 C   0  0  0  0  0  0  0  0  0  0  0  0
   -1.5798  -37.2850    5.0844 C   0  0  0  0  0  0  0  0  0  0  0  0
   -0.0681  -37.2485    5.2431 C   0  0  0  0  0  0  0  0  0  0  0  0
 25  1  1  0
 26  1  1  6
  2 29  1  0
  2 30  1  1
 32  2  1  0
 32  3  1  1
  3 33  1  0
  5  4  1  0
  4 28  1  1
  4 32  1  0
 26  5  1  0
  5 27  1  6
  7  6  1  0
  8  7  1  0
  9  8  1  0
 10  9  1  0
 11 10  1  0
 12 11  1  0
 13 12  1  0
 14 13  1  0
 15 14  1  0
 16 15  1  0
 17 16  1  0
 18 17  1  0
 19 18  1  0
 20 19  1  0
 20 21  1  1
 22 20  1  0
 22 23  1  1
 24 22  1  0
 24 25  1  1
 24 41  1  0
 26 29  1  0
 30 31  1  0
 33 34  1  0
 34 35  2  0
 34 40  1  0
 35 36  1  0
 36 37  2  0
 37 38  1  0
 37 39  1  0
 39 40  2  0
 41 42  1  0
 42 43  2  0
 42 44  1  0
 44 45  1  0
 45 46  1  0
 46 47  1  0
 47 48  1  0
 48 49  1  0
 49 50  1  0
 50 51  1  0
 51 52  1  0
 52 53  1  0
 53 54  1  0
 54 55  1  0
 55 56  1  0
 56 57  1  0
 57 58  1  0
 58 59  1  0
 59 60  1  0
 60 61  1  0
 61 62  1  0
 62 63  1  0
 63 64  1  0
 64 65  1  0
 65 66  1  0
 66 67  1  0
 67 68  1  0
M  END
$$$$
