
     RDKit          3D

 68 69  0  0  0  0  0  0  0  0999 V2000
  -16.1597  -27.5896   21.9102 O   0  0  0  0  0  0  0  0  0  0  0  0
  -18.9861  -25.3036   22.0887 C   0  0  2  0  0  0  0  0  0  0  0  0
  -18.4109  -24.8239   24.4303 O   0  0  0  0  0  0  0  0  0  0  0  0
  -19.2773  -27.0346   23.8508 C   0  0  1  0  0  0  0  0  0  0  0  0
  -17.8434  -27.5496   23.6512 C   0  0  2  0  0  0  0  0  0  0  0  0
   -2.4555  -36.5236   13.5965 C   0  0  0  0  0  0  0  0  0  0  0  0
   -2.5218  -35.3756   12.6031 C   0  0  0  0  0  0  0  0  0  0  0  0
   -3.9374  -35.0755   12.1002 C   0  0  0  0  0  0  0  0  0  0  0  0
   -4.0156  -33.8239   11.2216 C   0  0  0  0  0  0  0  0  0  0  0  0
   -5.3839  -33.1275   11.2593 C   0  0  0  0  0  0  0  0  0  0  0  0
   -5.8899  -32.7156   12.6464 C   0  0  0  0  0  0  0  0  0  0  0  0
   -6.4838  -31.3047   12.6826 C   0  0  0  0  0  0  0  0  0  0  0  0
   -7.0297  -30.9523   14.0702 C   0  0  0  0  0  0  0  0  0  0  0  0
   -8.3655  -30.2160   13.9514 C   0  0  0  0  0  0  0  0  0  0  0  0
   -9.4862  -30.8105   14.8073 C   0  0  0  0  0  0  0  0  0  0  0  0
  -10.8117  -30.0481   14.7690 C   0  0  0  0  0  0  0  0  0  0  0  0
  -10.9081  -28.7696   15.6045 C   0  0  0  0  0  0  0  0  0  0  0  0
  -11.8771  -28.7966   16.7915 C   0  0  0  0  0  0  0  0  0  0  0  0
  -12.0892  -27.4824   17.5537 C   0  0  0  0  0  0  0  0  0  0  0  0
  -13.5402  -26.9536   17.5822 C   0  0  1  0  0  0  0  0  0  0  0  0
  -14.1128  -27.0184   16.2800 O   0  0  0  0  0  0  0  0  0  0  0  0
  -14.3930  -27.7569   18.5977 C   0  0  1  0  0  0  0  0  0  0  0  0
  -13.7751  -29.0341   18.8044 O   0  0  0  0  0  0  0  0  0  0  0  0
  -14.7074  -27.0375   19.9479 C   0  0  2  0  0  0  0  0  0  0  0  0
  -16.1132  -27.3968   20.4882 C   0  0  0  0  0  0  0  0  0  0  0  0
  -17.1229  -26.7403   22.5471 C   0  0  2  0  0  0  0  0  0  0  0  0
  -17.9308  -28.9544   23.3424 O   0  0  0  0  0  0  0  0  0  0  0  0
  -19.7490  -27.3920   25.1574 O   0  0  0  0  0  0  0  0  0  0  0  0
  -18.0702  -26.3011   21.5816 O   0  0  0  0  0  0  0  0  0  0  0  0
  -18.4626  -23.8962   21.7454 C   0  0  0  0  0  0  0  0  0  0  0  0
  -19.2474  -23.2480   20.7435 O   0  0  0  0  0  0  0  0  0  0  0  0
  -19.3528  -25.5228   23.5881 C   0  0  2  0  0  0  0  0  0  0  0  0
  -18.9743  -23.7075   25.1290 C   0  0  0  0  0  0  0  0  0  0  0  0
  -17.9032  -22.9716   25.8942 C   0  0  0  0  0  0  0  0  0  0  0  0
  -17.0407  -23.6600   26.7597 C   0  0  0  0  0  0  0  0  0  0  0  0
  -16.0212  -22.9832   27.4341 C   0  0  0  0  0  0  0  0  0  0  0  0
  -15.8433  -21.6083   27.2534 C   0  0  0  0  0  0  0  0  0  0  0  0
  -14.7588  -20.8764   27.9870 C   0  0  0  0  0  0  0  0  0  0  0  0
  -16.7208  -20.9140   26.4127 C   0  0  0  0  0  0  0  0  0  0  0  0
  -17.7396  -21.5886   25.7374 C   0  0  0  0  0  0  0  0  0  0  0  0
  -14.5269  -25.5803   19.8771 N   0  0  0  0  0  0  0  0  0  0  0  0
  -13.5010  -25.0070   19.1618 C   0  0  0  0  0  0  0  0  0  0  0  0
  -12.3233  -25.2528   19.3995 O   0  0  0  0  0  0  0  0  0  0  0  0
  -13.9732  -24.0555   18.0791 C   0  0  0  0  0  0  0  0  0  0  0  0
  -12.8194  -23.5652   17.2027 C   0  0  0  0  0  0  0  0  0  0  0  0
  -11.9798  -22.4907   17.9060 C   0  0  0  0  0  0  0  0  0  0  0  0
  -10.8404  -21.9524   17.0350 C   0  0  0  0  0  0  0  0  0  0  0  0
   -9.4672  -22.5793   17.3203 C   0  0  0  0  0  0  0  0  0  0  0  0
   -8.6939  -22.9356   16.0480 C   0  0  0  0  0  0  0  0  0  0  0  0
   -7.3332  -23.5592   16.3660 C   0  0  0  0  0  0  0  0  0  0  0  0
   -6.6013  -23.9618   15.0832 C   0  0  0  0  0  0  0  0  0  0  0  0
   -7.0526  -25.3350   14.5808 C   0  0  0  0  0  0  0  0  0  0  0  0
   -6.3911  -25.7300   13.2557 C   0  0  0  0  0  0  0  0  0  0  0  0
   -6.8428  -27.1020   12.7455 C   0  0  0  0  0  0  0  0  0  0  0  0
   -5.7215  -27.8041   11.9757 C   0  0  0  0  0  0  0  0  0  0  0  0
   -5.5764  -27.2408   10.5594 C   0  0  0  0  0  0  0  0  0  0  0  0
   -5.9228  -28.2933    9.5030 C   0  0  0  0  0  0  0  0  0  0  0  0
   -4.9619  -28.2344    8.3157 C   0  0  0  0  0  0  0  0  0  0  0  0
   -5.5567  -27.5713    7.0706 C   0  0  0  0  0  0  0  0  0  0  0  0
   -5.1798  -28.1570    5.7055 C   0  0  0  0  0  0  0  0  0  0  0  0
   -3.7113  -28.0057    5.2920 C   0  0  0  0  0  0  0  0  0  0  0  0
   -3.0978  -29.2671    4.6840 C   0  0  0  0  0  0  0  0  0  0  0  0
   -1.6268  -29.0982    4.2866 C   0  0  0  0  0  0  0  0  0  0  0  0
   -1.1727  -27.6690    3.9728 C   0  0  0  0  0  0  0  0  0  0  0  0
   -0.3832  -27.5518    2.6654 C   0  0  0  0  0  0  0  0  0  0  0  0
   -0.7615  -26.2805    1.8994 C   0  0  0  0  0  0  0  0  0  0  0  0
    0.0278  -26.1056    0.6007 C   0  0  0  0  0  0  0  0  0  0  0  0
    0.9378  -24.8875    0.6057 C   0  0  0  0  0  0  0  0  0  0  0  0
 25  1  1  0
 26  1  1  6
  2 29  1  0
  2 30  1  1
 32  2  1  0
 32  3  1  1
  3 33  1  0
  5  4  1  0
  4 28  1  1
  4 32  1  0
 26  5  1  0
  5 27  1  6
  7  6  1  0
  8  7  1  0
  9  8  1  0
 10  9  1  0
 11 10  1  0
 12 11  1  0
 13 12  1  0
 14 13  1  0
 15 14  1  0
 16 15  1  0
 17 16  1  0
 18 17  1  0
 19 18  1  0
 20 19  1  0
 20 21  1  6
 22 20  1  0
 22 23  1  1
 24 22  1  0
 24 25  1  6
 24 41  1  0
 26 29  1  0
 30 31  1  0
 33 34  1  0
 34 35  2  0
 34 40  1  0
 35 36  1  0
 36 37  2  0
 37 38  1  0
 37 39  1  0
 39 40  2  0
 41 42  1  0
 42 43  2  0
 42 44  1  0
 44 45  1  0
 45 46  1  0
 46 47  1  0
 47 48  1  0
 48 49  1  0
 49 50  1  0
 50 51  1  0
 51 52  1  0
 52 53  1  0
 53 54  1  0
 54 55  1  0
 55 56  1  0
 56 57  1  0
 57 58  1  0
 58 59  1  0
 59 60  1  0
 60 61  1  0
 61 62  1  0
 62 63  1  0
 63 64  1  0
 64 65  1  0
 65 66  1  0
 66 67  1  0
 67 68  1  0
M  END
$$$$
