
     RDKit          3D

 68 69  0  0  0  0  0  0  0  0999 V2000
  -16.6327  -27.4899   19.1147 O   0  0  0  0  0  0  0  0  0  0  0  0
  -17.8926  -28.4624   22.3878 C   0  0  2  0  0  0  0  0  0  0  0  0
  -20.0336  -27.3793   21.8516 O   0  0  0  0  0  0  0  0  0  0  0  0
  -18.0547  -25.9877   22.1994 C   0  0  1  0  0  0  0  0  0  0  0  0
  -17.7520  -26.0331   20.6936 C   0  0  2  0  0  0  0  0  0  0  0  0
   -0.1503  -34.3445   13.2404 C   0  0  0  0  0  0  0  0  0  0  0  0
   -0.7906  -32.9680   13.1741 C   0  0  0  0  0  0  0  0  0  0  0  0
   -1.6295  -32.7376   11.9131 C   0  0  0  0  0  0  0  0  0  0  0  0
   -2.3504  -31.3867   11.9035 C   0  0  0  0  0  0  0  0  0  0  0  0
   -3.8390  -31.4838   11.5383 C   0  0  0  0  0  0  0  0  0  0  0  0
   -4.7955  -30.6396   12.3882 C   0  0  0  0  0  0  0  0  0  0  0  0
   -6.2347  -30.6405   11.8656 C   0  0  0  0  0  0  0  0  0  0  0  0
   -7.0409  -29.4593   12.4159 C   0  0  0  0  0  0  0  0  0  0  0  0
   -8.4073  -29.3763   11.7330 C   0  0  0  0  0  0  0  0  0  0  0  0
   -9.5705  -29.8661   12.5985 C   0  0  0  0  0  0  0  0  0  0  0  0
  -10.7020  -28.8574   12.8034 C   0  0  0  0  0  0  0  0  0  0  0  0
  -11.9020  -29.3117   13.6374 C   0  0  0  0  0  0  0  0  0  0  0  0
  -13.0912  -28.3477   13.7111 C   0  0  0  0  0  0  0  0  0  0  0  0
  -14.3486  -28.8397   14.4390 C   0  0  0  0  0  0  0  0  0  0  0  0
  -14.7446  -28.0422   15.7012 C   0  0  1  0  0  0  0  0  0  0  0  0
  -16.0761  -27.5532   15.5763 O   0  0  0  0  0  0  0  0  0  0  0  0
  -14.5994  -28.9221   16.9695 C   0  0  1  0  0  0  0  0  0  0  0  0
  -13.5870  -29.9084   16.7283 O   0  0  0  0  0  0  0  0  0  0  0  0
  -14.3586  -28.1570   18.3096 C   0  0  2  0  0  0  0  0  0  0  0  0
  -15.5143  -28.3669   19.3184 C   0  0  0  0  0  0  0  0  0  0  0  0
  -17.5398  -27.4920   20.2246 C   0  0  2  0  0  0  0  0  0  0  0  0
  -16.5978  -25.2022   20.4623 O   0  0  0  0  0  0  0  0  0  0  0  0
  -18.7434  -24.7722   22.5243 O   0  0  0  0  0  0  0  0  0  0  0  0
  -16.9807  -28.2579   21.2844 O   0  0  0  0  0  0  0  0  0  0  0  0
  -18.6146  -29.8129   22.2208 C   0  0  0  0  0  0  0  0  0  0  0  0
  -17.7216  -30.8738   21.8788 O   0  0  0  0  0  0  0  0  0  0  0  0
  -18.8290  -27.2407   22.6357 C   0  0  2  0  0  0  0  0  0  0  0  0
  -21.2225  -26.9680   22.5365 C   0  0  0  0  0  0  0  0  0  0  0  0
  -21.2419  -27.5266   23.9372 C   0  0  0  0  0  0  0  0  0  0  0  0
  -21.5989  -28.8628   24.1701 C   0  0  0  0  0  0  0  0  0  0  0  0
  -21.5739  -29.3902   25.4638 C   0  0  0  0  0  0  0  0  0  0  0  0
  -21.1890  -28.5937   26.5464 C   0  0  0  0  0  0  0  0  0  0  0  0
  -21.1750  -29.1530   27.9381 C   0  0  0  0  0  0  0  0  0  0  0  0
  -20.8601  -27.2522   26.3204 C   0  0  0  0  0  0  0  0  0  0  0  0
  -20.8837  -26.7235   25.0285 C   0  0  0  0  0  0  0  0  0  0  0  0
  -14.0850  -26.7262   18.1122 N   0  0  0  0  0  0  0  0  0  0  0  0
  -12.8037  -26.2259   18.0878 C   0  0  0  0  0  0  0  0  0  0  0  0
  -11.8218  -26.9387   18.2658 O   0  0  0  0  0  0  0  0  0  0  0  0
  -12.7396  -24.7324   17.8310 C   0  0  0  0  0  0  0  0  0  0  0  0
  -13.5270  -23.9365   18.8732 C   0  0  0  0  0  0  0  0  0  0  0  0
  -12.7144  -22.7620   19.4339 C   0  0  0  0  0  0  0  0  0  0  0  0
  -12.2263  -21.7965   18.3494 C   0  0  0  0  0  0  0  0  0  0  0  0
  -11.4619  -20.5740   18.8796 C   0  0  0  0  0  0  0  0  0  0  0  0
  -11.0453  -19.6005   17.7739 C   0  0  0  0  0  0  0  0  0  0  0  0
  -10.9119  -18.1690   18.2978 C   0  0  0  0  0  0  0  0  0  0  0  0
   -9.5187  -17.6060   18.0060 C   0  0  0  0  0  0  0  0  0  0  0  0
   -8.8583  -17.0461   19.2678 C   0  0  0  0  0  0  0  0  0  0  0  0
   -8.2962  -18.1417   20.1805 C   0  0  0  0  0  0  0  0  0  0  0  0
   -6.7657  -18.1431   20.2434 C   0  0  0  0  0  0  0  0  0  0  0  0
   -6.2698  -18.2700   21.6859 C   0  0  0  0  0  0  0  0  0  0  0  0
   -4.9394  -17.5397   21.8872 C   0  0  0  0  0  0  0  0  0  0  0  0
   -4.3217  -17.8720   23.2481 C   0  0  0  0  0  0  0  0  0  0  0  0
   -2.9336  -17.2506   23.4013 C   0  0  0  0  0  0  0  0  0  0  0  0
   -2.2779  -17.5276   24.7568 C   0  0  0  0  0  0  0  0  0  0  0  0
   -2.1622  -16.3591   25.7416 C   0  0  0  0  0  0  0  0  0  0  0  0
   -0.9414  -15.4490   25.5637 C   0  0  0  0  0  0  0  0  0  0  0  0
    0.0217  -15.4523   26.7510 C   0  0  0  0  0  0  0  0  0  0  0  0
    1.3619  -14.7715   26.4499 C   0  0  0  0  0  0  0  0  0  0  0  0
    2.6039  -15.6655   26.5224 C   0  0  0  0  0  0  0  0  0  0  0  0
    3.6492  -15.3476   25.4489 C   0  0  0  0  0  0  0  0  0  0  0  0
    4.2299  -16.6282   24.8415 C   0  0  0  0  0  0  0  0  0  0  0  0
    4.8663  -16.4057   23.4683 C   0  0  0  0  0  0  0  0  0  0  0  0
    5.4460  -17.6719   22.8582 C   0  0  0  0  0  0  0  0  0  0  0  0
 25  1  1  0
 26  1  1  6
  2 29  1  0
  2 30  1  6
 32  2  1  0
 32  3  1  6
  3 33  1  0
  5  4  1  0
  4 28  1  6
  4 32  1  0
 26  5  1  0
  5 27  1  1
  7  6  1  0
  8  7  1  0
  9  8  1  0
 10  9  1  0
 11 10  1  0
 12 11  1  0
 13 12  1  0
 14 13  1  0
 15 14  1  0
 16 15  1  0
 17 16  1  0
 18 17  1  0
 19 18  1  0
 20 19  1  0
 20 21  1  6
 22 20  1  0
 22 23  1  6
 24 22  1  0
 24 25  1  1
 24 41  1  0
 26 29  1  0
 30 31  1  0
 33 34  1  0
 34 35  2  0
 34 40  1  0
 35 36  1  0
 36 37  2  0
 37 38  1  0
 37 39  1  0
 39 40  2  0
 41 42  1  0
 42 43  2  0
 42 44  1  0
 44 45  1  0
 45 46  1  0
 46 47  1  0
 47 48  1  0
 48 49  1  0
 49 50  1  0
 50 51  1  0
 51 52  1  0
 52 53  1  0
 53 54  1  0
 54 55  1  0
 55 56  1  0
 56 57  1  0
 57 58  1  0
 58 59  1  0
 59 60  1  0
 60 61  1  0
 61 62  1  0
 62 63  1  0
 63 64  1  0
 64 65  1  0
 65 66  1  0
 66 67  1  0
 67 68  1  0
M  END
$$$$
