
     RDKit          3D

 68 69  0  0  0  0  0  0  0  0999 V2000
  -15.3102  -29.1817   20.1547 O   0  0  0  0  0  0  0  0  0  0  0  0
  -17.0094  -26.0222   20.7686 C   0  0  2  0  0  0  0  0  0  0  0  0
  -18.8097  -27.2473   21.9098 O   0  0  0  0  0  0  0  0  0  0  0  0
  -18.5530  -27.4967   19.4921 C   0  0  1  0  0  0  0  0  0  0  0  0
  -17.6456  -28.7176   19.7094 C   0  0  2  0  0  0  0  0  0  0  0  0
   -4.4869  -33.4084    6.1036 C   0  0  0  0  0  0  0  0  0  0  0  0
   -5.2593  -32.1661    6.5151 C   0  0  0  0  0  0  0  0  0  0  0  0
   -4.8414  -31.6023    7.8768 C   0  0  0  0  0  0  0  0  0  0  0  0
   -5.6593  -30.3801    8.3033 C   0  0  0  0  0  0  0  0  0  0  0  0
   -5.2208  -29.7824    9.6484 C   0  0  0  0  0  0  0  0  0  0  0  0
   -5.8496  -28.4352   10.0216 C   0  0  0  0  0  0  0  0  0  0  0  0
   -7.3790  -28.4365    9.9461 C   0  0  0  0  0  0  0  0  0  0  0  0
   -7.9728  -27.1009   10.4060 C   0  0  0  0  0  0  0  0  0  0  0  0
   -7.8391  -26.9467   11.9221 C   0  0  0  0  0  0  0  0  0  0  0  0
   -9.1537  -27.1164   12.6870 C   0  0  0  0  0  0  0  0  0  0  0  0
   -9.0504  -26.9631   14.2054 C   0  0  0  0  0  0  0  0  0  0  0  0
  -10.3332  -27.1565   15.0172 C   0  0  0  0  0  0  0  0  0  0  0  0
  -10.8413  -28.5947   15.1657 C   0  0  0  0  0  0  0  0  0  0  0  0
  -11.5327  -28.9615   16.4850 C   0  0  0  0  0  0  0  0  0  0  0  0
  -13.0717  -29.0780   16.4226 C   0  0  1  0  0  0  0  0  0  0  0  0
  -13.4500  -30.1213   15.5304 O   0  0  0  0  0  0  0  0  0  0  0  0
  -13.6572  -29.3253   17.8367 C   0  0  1  0  0  0  0  0  0  0  0  0
  -13.2333  -30.6188   18.2873 O   0  0  0  0  0  0  0  0  0  0  0  0
  -13.3718  -28.2168   18.8993 C   0  0  2  0  0  0  0  0  0  0  0  0
  -14.0359  -28.5291   20.2627 C   0  0  0  0  0  0  0  0  0  0  0  0
  -16.3969  -28.3279   20.5353 C   0  0  2  0  0  0  0  0  0  0  0  0
  -17.3103  -29.2403   18.4092 O   0  0  0  0  0  0  0  0  0  0  0  0
  -19.8926  -27.9255   19.2114 O   0  0  0  0  0  0  0  0  0  0  0  0
  -16.0473  -26.9764   20.2638 O   0  0  0  0  0  0  0  0  0  0  0  0
  -16.5655  -25.5225   22.1564 C   0  0  0  0  0  0  0  0  0  0  0  0
  -15.6660  -26.4245   22.8024 O   0  0  0  0  0  0  0  0  0  0  0  0
  -18.4771  -26.5429   20.6940 C   0  0  2  0  0  0  0  0  0  0  0  0
  -20.1133  -26.9423   22.4192 C   0  0  0  0  0  0  0  0  0  0  0  0
  -20.2987  -27.5508   23.7866 C   0  0  0  0  0  0  0  0  0  0  0  0
  -19.3722  -28.4755   24.2903 C   0  0  0  0  0  0  0  0  0  0  0  0
  -19.5225  -29.0047   25.5747 C   0  0  0  0  0  0  0  0  0  0  0  0
  -20.5983  -28.6174   26.3792 C   0  0  0  0  0  0  0  0  0  0  0  0
  -20.7702  -29.1947   27.7530 C   0  0  0  0  0  0  0  0  0  0  0  0
  -21.5399  -27.7168   25.8681 C   0  0  0  0  0  0  0  0  0  0  0  0
  -21.3912  -27.1863   24.5854 C   0  0  0  0  0  0  0  0  0  0  0  0
  -13.7321  -26.8697   18.4341 N   0  0  0  0  0  0  0  0  0  0  0  0
  -12.8228  -26.0464   17.8110 C   0  0  0  0  0  0  0  0  0  0  0  0
  -11.6410  -26.3517   17.6923 O   0  0  0  0  0  0  0  0  0  0  0  0
  -13.4245  -24.7488   17.3063 C   0  0  0  0  0  0  0  0  0  0  0  0
  -12.3540  -23.6983   17.0060 C   0  0  0  0  0  0  0  0  0  0  0  0
  -11.9100  -22.9522   18.2710 C   0  0  0  0  0  0  0  0  0  0  0  0
  -10.8353  -21.8950   17.9995 C   0  0  0  0  0  0  0  0  0  0  0  0
  -10.4716  -21.0273   19.2139 C   0  0  0  0  0  0  0  0  0  0  0  0
   -9.3776  -19.9998   18.9116 C   0  0  0  0  0  0  0  0  0  0  0  0
   -8.2223  -20.0893   19.9109 C   0  0  0  0  0  0  0  0  0  0  0  0
   -8.6728  -19.6603   21.3096 C   0  0  0  0  0  0  0  0  0  0  0  0
   -7.5420  -19.7876   22.3328 C   0  0  0  0  0  0  0  0  0  0  0  0
   -7.9525  -19.3200   23.7336 C   0  0  0  0  0  0  0  0  0  0  0  0
   -6.8213  -18.6111   24.4847 C   0  0  0  0  0  0  0  0  0  0  0  0
   -7.2408  -17.2052   24.9208 C   0  0  0  0  0  0  0  0  0  0  0  0
   -6.1793  -16.5550   25.8121 C   0  0  0  0  0  0  0  0  0  0  0  0
   -6.5633  -15.1191   26.1791 C   0  0  0  0  0  0  0  0  0  0  0  0
   -6.3130  -14.1569   25.0181 C   0  0  0  0  0  0  0  0  0  0  0  0
   -6.6850  -12.7043   25.3271 C   0  0  0  0  0  0  0  0  0  0  0  0
   -6.3355  -11.6432   24.2781 C   0  0  0  0  0  0  0  0  0  0  0  0
   -5.5139  -10.4494   24.7781 C   0  0  0  0  0  0  0  0  0  0  0  0
   -4.3864  -10.8231   25.7405 C   0  0  0  0  0  0  0  0  0  0  0  0
   -3.1541   -9.9199   25.6148 C   0  0  0  0  0  0  0  0  0  0  0  0
   -2.1554   -9.9760   26.7752 C   0  0  0  0  0  0  0  0  0  0  0  0
   -1.7422  -11.4005   27.1578 C   0  0  0  0  0  0  0  0  0  0  0  0
   -1.2367  -11.4641   28.6022 C   0  0  0  0  0  0  0  0  0  0  0  0
   -1.3699  -12.8555   29.2236 C   0  0  0  0  0  0  0  0  0  0  0  0
   -1.5249  -12.8301   30.7359 C   0  0  0  0  0  0  0  0  0  0  0  0
 25  1  1  0
 26  1  1  6
  2 29  1  0
  2 30  1  1
 32  2  1  0
 32  3  1  1
  3 33  1  0
  5  4  1  0
  4 28  1  1
  4 32  1  0
 26  5  1  0
  5 27  1  6
  7  6  1  0
  8  7  1  0
  9  8  1  0
 10  9  1  0
 11 10  1  0
 12 11  1  0
 13 12  1  0
 14 13  1  0
 15 14  1  0
 16 15  1  0
 17 16  1  0
 18 17  1  0
 19 18  1  0
 20 19  1  0
 20 21  1  6
 22 20  1  0
 22 23  1  1
 24 22  1  0
 24 25  1  1
 24 41  1  0
 26 29  1  0
 30 31  1  0
 33 34  1  0
 34 35  2  0
 34 40  1  0
 35 36  1  0
 36 37  2  0
 37 38  1  0
 37 39  1  0
 39 40  2  0
 41 42  1  0
 42 43  2  0
 42 44  1  0
 44 45  1  0
 45 46  1  0
 46 47  1  0
 47 48  1  0
 48 49  1  0
 49 50  1  0
 50 51  1  0
 51 52  1  0
 52 53  1  0
 53 54  1  0
 54 55  1  0
 55 56  1  0
 56 57  1  0
 57 58  1  0
 58 59  1  0
 59 60  1  0
 60 61  1  0
 61 62  1  0
 62 63  1  0
 63 64  1  0
 64 65  1  0
 65 66  1  0
 66 67  1  0
 67 68  1  0
M  END
$$$$
