
     RDKit          3D

 68 69  0  0  0  0  0  0  0  0999 V2000
  -16.1132  -26.6495   20.6490 O   0  0  0  0  0  0  0  0  0  0  0  0
  -19.2306  -28.2730   21.5938 C   0  0  2  0  0  0  0  0  0  0  0  0
  -20.3609  -26.0920   21.4944 O   0  0  0  0  0  0  0  0  0  0  0  0
  -18.7371  -26.5063   23.2735 C   0  0  1  0  0  0  0  0  0  0  0  0
  -17.6202  -25.9168   22.3982 C   0  0  2  0  0  0  0  0  0  0  0  0
   -4.1869  -26.3737    6.5946 C   0  0  0  0  0  0  0  0  0  0  0  0
   -5.5217  -25.6828    6.8188 C   0  0  0  0  0  0  0  0  0  0  0  0
   -6.6740  -26.2892    6.0117 C   0  0  0  0  0  0  0  0  0  0  0  0
   -8.0365  -25.6758    6.3460 C   0  0  0  0  0  0  0  0  0  0  0  0
   -8.7998  -26.4291    7.4453 C   0  0  0  0  0  0  0  0  0  0  0  0
   -9.1551  -25.6150    8.6947 C   0  0  0  0  0  0  0  0  0  0  0  0
   -8.0666  -25.6475    9.7712 C   0  0  0  0  0  0  0  0  0  0  0  0
   -8.3460  -24.6427   10.8938 C   0  0  0  0  0  0  0  0  0  0  0  0
   -9.4708  -25.1475   11.7996 C   0  0  0  0  0  0  0  0  0  0  0  0
   -9.0414  -25.4072   13.2453 C   0  0  0  0  0  0  0  0  0  0  0  0
  -10.0442  -26.1910   14.0937 C   0  0  0  0  0  0  0  0  0  0  0  0
  -10.4455  -25.5854   15.4406 C   0  0  0  0  0  0  0  0  0  0  0  0
  -11.4769  -26.3648   16.2638 C   0  0  0  0  0  0  0  0  0  0  0  0
  -11.4583  -26.1625   17.7842 C   0  0  0  0  0  0  0  0  0  0  0  0
  -12.7669  -25.6223   18.4020 C   0  0  1  0  0  0  0  0  0  0  0  0
  -13.0129  -24.2948   17.9494 O   0  0  0  0  0  0  0  0  0  0  0  0
  -13.9582  -26.5512   18.0532 C   0  0  1  0  0  0  0  0  0  0  0  0
  -13.6988  -27.1715   16.7868 O   0  0  0  0  0  0  0  0  0  0  0  0
  -14.3525  -27.5976   19.1436 C   0  0  2  0  0  0  0  0  0  0  0  0
  -15.8498  -27.5061   19.5272 C   0  0  0  0  0  0  0  0  0  0  0  0
  -17.4772  -26.7201   21.0838 C   0  0  2  0  0  0  0  0  0  0  0  0
  -16.4125  -25.9186   23.1841 O   0  0  0  0  0  0  0  0  0  0  0  0
  -19.2166  -25.5132   24.1906 O   0  0  0  0  0  0  0  0  0  0  0  0
  -17.8250  -28.0796   21.3146 O   0  0  0  0  0  0  0  0  0  0  0  0
  -19.9724  -28.6376   20.2940 C   0  0  0  0  0  0  0  0  0  0  0  0
  -19.0817  -28.9847   19.2328 O   0  0  0  0  0  0  0  0  0  0  0  0
  -19.8564  -27.0956   22.4018 C   0  0  2  0  0  0  0  0  0  0  0  0
  -21.3448  -25.2273   22.0741 C   0  0  0  0  0  0  0  0  0  0  0  0
  -22.0530  -24.4418   20.9990 C   0  0  0  0  0  0  0  0  0  0  0  0
  -22.2248  -24.9796   19.7151 C   0  0  0  0  0  0  0  0  0  0  0  0
  -22.9194  -24.2681   18.7335 C   0  0  0  0  0  0  0  0  0  0  0  0
  -23.4571  -23.0093   19.0178 C   0  0  0  0  0  0  0  0  0  0  0  0
  -24.1909  -22.2370   17.9618 C   0  0  0  0  0  0  0  0  0  0  0  0
  -23.2622  -22.4581   20.2894 C   0  0  0  0  0  0  0  0  0  0  0  0
  -22.5690  -23.1677   21.2718 C   0  0  0  0  0  0  0  0  0  0  0  0
  -13.4978  -27.5316   20.3377 N   0  0  0  0  0  0  0  0  0  0  0  0
  -12.8022  -28.6260   20.7975 C   0  0  0  0  0  0  0  0  0  0  0  0
  -12.4840  -29.5531   20.0605 O   0  0  0  0  0  0  0  0  0  0  0  0
  -12.4864  -28.5662   22.2798 C   0  0  0  0  0  0  0  0  0  0  0  0
  -10.9917  -28.3733   22.5409 C   0  0  0  0  0  0  0  0  0  0  0  0
  -10.6712  -26.9532   23.0251 C   0  0  0  0  0  0  0  0  0  0  0  0
   -9.1749  -26.7197   23.2552 C   0  0  0  0  0  0  0  0  0  0  0  0
   -8.8143  -25.3018   23.7235 C   0  0  0  0  0  0  0  0  0  0  0  0
   -7.3437  -24.9473   23.4874 C   0  0  0  0  0  0  0  0  0  0  0  0
   -6.8156  -23.9783   24.5473 C   0  0  0  0  0  0  0  0  0  0  0  0
   -5.3167  -24.1845   24.7805 C   0  0  0  0  0  0  0  0  0  0  0  0
   -4.6331  -24.8022   23.5587 C   0  0  0  0  0  0  0  0  0  0  0  0
   -3.1105  -24.8911   23.7111 C   0  0  0  0  0  0  0  0  0  0  0  0
   -2.5436  -23.8529   24.6844 C   0  0  0  0  0  0  0  0  0  0  0  0
   -1.6331  -22.8559   23.9635 C   0  0  0  0  0  0  0  0  0  0  0  0
   -0.9562  -21.9007   24.9502 C   0  0  0  0  0  0  0  0  0  0  0  0
   -1.8594  -20.7098   25.2815 C   0  0  0  0  0  0  0  0  0  0  0  0
   -2.1015  -19.8305   24.0548 C   0  0  0  0  0  0  0  0  0  0  0  0
   -2.9869  -18.6126   24.3314 C   0  0  0  0  0  0  0  0  0  0  0  0
   -2.6110  -17.2921   23.6506 C   0  0  0  0  0  0  0  0  0  0  0  0
   -3.6899  -16.6646   22.7603 C   0  0  0  0  0  0  0  0  0  0  0  0
   -3.8698  -15.1595   22.9592 C   0  0  0  0  0  0  0  0  0  0  0  0
   -2.7825  -14.3208   22.2776 C   0  0  0  0  0  0  0  0  0  0  0  0
   -2.9198  -12.8009   22.4114 C   0  0  0  0  0  0  0  0  0  0  0  0
   -4.3166  -12.2800   22.0593 C   0  0  0  0  0  0  0  0  0  0  0  0
   -4.7319  -11.1323   22.9847 C   0  0  0  0  0  0  0  0  0  0  0  0
   -6.0558  -10.4829   22.5779 C   0  0  0  0  0  0  0  0  0  0  0  0
   -6.0522   -9.9412   21.1572 C   0  0  0  0  0  0  0  0  0  0  0  0
 25  1  1  0
 26  1  1  1
  2 29  1  0
  2 30  1  6
 32  2  1  0
 32  3  1  6
  3 33  1  0
  5  4  1  0
  4 28  1  1
  4 32  1  0
 26  5  1  0
  5 27  1  1
  7  6  1  0
  8  7  1  0
  9  8  1  0
 10  9  1  0
 11 10  1  0
 12 11  1  0
 13 12  1  0
 14 13  1  0
 15 14  1  0
 16 15  1  0
 17 16  1  0
 18 17  1  0
 19 18  1  0
 20 19  1  0
 20 21  1  6
 22 20  1  0
 22 23  1  6
 24 22  1  0
 24 25  1  1
 24 41  1  0
 26 29  1  0
 30 31  1  0
 33 34  1  0
 34 35  2  0
 34 40  1  0
 35 36  1  0
 36 37  2  0
 37 38  1  0
 37 39  1  0
 39 40  2  0
 41 42  1  0
 42 43  2  0
 42 44  1  0
 44 45  1  0
 45 46  1  0
 46 47  1  0
 47 48  1  0
 48 49  1  0
 49 50  1  0
 50 51  1  0
 51 52  1  0
 52 53  1  0
 53 54  1  0
 54 55  1  0
 55 56  1  0
 56 57  1  0
 57 58  1  0
 58 59  1  0
 59 60  1  0
 60 61  1  0
 61 62  1  0
 62 63  1  0
 63 64  1  0
 64 65  1  0
 65 66  1  0
 66 67  1  0
 67 68  1  0
M  END
$$$$
