
     RDKit          3D

 68 69  0  0  0  0  0  0  0  0999 V2000
  -15.9101  -28.0704   19.2421 O   0  0  0  0  0  0  0  0  0  0  0  0
  -17.9181  -25.5803   20.9781 C   0  0  2  0  0  0  0  0  0  0  0  0
  -19.7077  -25.9164   19.3262 O   0  0  0  0  0  0  0  0  0  0  0  0
  -17.6306  -24.8379   18.6218 C   0  0  1  0  0  0  0  0  0  0  0  0
  -17.0560  -26.2023   18.2102 C   0  0  2  0  0  0  0  0  0  0  0  0
   -6.3707  -33.3256    8.8555 C   0  0  0  0  0  0  0  0  0  0  0  0
   -7.0803  -32.1688    9.5394 C   0  0  0  0  0  0  0  0  0  0  0  0
   -6.1293  -31.1577   10.1875 C   0  0  0  0  0  0  0  0  0  0  0  0
   -6.8466  -30.1256   11.0621 C   0  0  0  0  0  0  0  0  0  0  0  0
   -6.7065  -28.6827   10.5552 C   0  0  0  0  0  0  0  0  0  0  0  0
   -7.1245  -27.5824   11.5373 C   0  0  0  0  0  0  0  0  0  0  0  0
   -8.0864  -26.5581   10.9290 C   0  0  0  0  0  0  0  0  0  0  0  0
   -9.1981  -26.1690   11.9092 C   0  0  0  0  0  0  0  0  0  0  0  0
  -10.1705  -27.3330   12.1089 C   0  0  0  0  0  0  0  0  0  0  0  0
  -10.4289  -27.6883   13.5749 C   0  0  0  0  0  0  0  0  0  0  0  0
  -10.6784  -29.1716   13.8531 C   0  0  0  0  0  0  0  0  0  0  0  0
  -10.7525  -29.6059   15.3187 C   0  0  0  0  0  0  0  0  0  0  0  0
  -10.2457  -28.6010   16.3589 C   0  0  0  0  0  0  0  0  0  0  0  0
  -10.7817  -28.7418   17.7893 C   0  0  0  0  0  0  0  0  0  0  0  0
  -11.8009  -27.6678   18.2292 C   0  0  1  0  0  0  0  0  0  0  0  0
  -12.0990  -26.7980   17.1418 O   0  0  0  0  0  0  0  0  0  0  0  0
  -13.0927  -28.3320   18.7712 C   0  0  1  0  0  0  0  0  0  0  0  0
  -12.9154  -29.7548   18.7581 O   0  0  0  0  0  0  0  0  0  0  0  0
  -13.5946  -27.8212   20.1592 C   0  0  2  0  0  0  0  0  0  0  0  0
  -15.0811  -28.1749   20.4097 C   0  0  0  0  0  0  0  0  0  0  0  0
  -17.0012  -27.1589   19.4247 C   0  0  2  0  0  0  0  0  0  0  0  0
  -15.7579  -25.9647   17.6316 O   0  0  0  0  0  0  0  0  0  0  0  0
  -18.1588  -24.1617   17.4725 O   0  0  0  0  0  0  0  0  0  0  0  0
  -16.7902  -26.4089   20.6144 O   0  0  0  0  0  0  0  0  0  0  0  0
  -18.8071  -26.3288   21.9891 C   0  0  0  0  0  0  0  0  0  0  0  0
  -18.0535  -26.9285   23.0438 O   0  0  0  0  0  0  0  0  0  0  0  0
  -18.6701  -25.0018   19.7410 C   0  0  2  0  0  0  0  0  0  0  0  0
  -21.0299  -25.4916   19.6769 C   0  0  0  0  0  0  0  0  0  0  0  0
  -20.9869  -24.1454   20.3552 C   0  0  0  0  0  0  0  0  0  0  0  0
  -22.1477  -23.5846   20.9074 C   0  0  0  0  0  0  0  0  0  0  0  0
  -22.0969  -22.3574   21.5737 C   0  0  0  0  0  0  0  0  0  0  0  0
  -20.8858  -21.6710   21.7029 C   0  0  0  0  0  0  0  0  0  0  0  0
  -20.8307  -20.3467   22.4051 C   0  0  0  0  0  0  0  0  0  0  0  0
  -19.7315  -22.2146   21.1277 C   0  0  0  0  0  0  0  0  0  0  0  0
  -19.7800  -23.4409   20.4622 C   0  0  0  0  0  0  0  0  0  0  0  0
  -13.3530  -26.3857   20.3639 N   0  0  0  0  0  0  0  0  0  0  0  0
  -13.0071  -25.8728   21.5928 C   0  0  0  0  0  0  0  0  0  0  0  0
  -12.7431  -26.5934   22.5493 O   0  0  0  0  0  0  0  0  0  0  0  0
  -12.9954  -24.3568   21.6368 C   0  0  0  0  0  0  0  0  0  0  0  0
  -12.5355  -23.8255   22.9954 C   0  0  0  0  0  0  0  0  0  0  0  0
  -12.4305  -22.2949   23.0086 C   0  0  0  0  0  0  0  0  0  0  0  0
  -11.8646  -21.7422   24.3203 C   0  0  0  0  0  0  0  0  0  0  0  0
  -11.7696  -20.2101   24.3798 C   0  0  0  0  0  0  0  0  0  0  0  0
  -12.1772  -19.6357   25.7392 C   0  0  0  0  0  0  0  0  0  0  0  0
  -10.9623  -19.1832   26.5520 C   0  0  0  0  0  0  0  0  0  0  0  0
  -11.0867  -17.7103   26.9502 C   0  0  0  0  0  0  0  0  0  0  0  0
   -9.7239  -17.0150   26.9816 C   0  0  0  0  0  0  0  0  0  0  0  0
   -9.6803  -15.7530   26.1127 C   0  0  0  0  0  0  0  0  0  0  0  0
   -8.2971  -15.0956   26.0789 C   0  0  0  0  0  0  0  0  0  0  0  0
   -7.3479  -15.8485   25.1436 C   0  0  0  0  0  0  0  0  0  0  0  0
   -5.9566  -15.2096   25.1246 C   0  0  0  0  0  0  0  0  0  0  0  0
   -4.9248  -16.1003   25.8215 C   0  0  0  0  0  0  0  0  0  0  0  0
   -3.5594  -16.0170   25.1396 C   0  0  0  0  0  0  0  0  0  0  0  0
   -3.5468  -16.5666   23.7107 C   0  0  0  0  0  0  0  0  0  0  0  0
   -3.2039  -18.0483   23.5227 C   0  0  0  0  0  0  0  0  0  0  0  0
   -1.7345  -18.3647   23.2210 C   0  0  0  0  0  0  0  0  0  0  0  0
   -1.4673  -19.8285   22.8700 C   0  0  0  0  0  0  0  0  0  0  0  0
   -1.0972  -20.0440   21.3980 C   0  0  0  0  0  0  0  0  0  0  0  0
   -1.9844  -21.0169   20.6148 C   0  0  0  0  0  0  0  0  0  0  0  0
   -1.6254  -21.1101   19.1286 C   0  0  0  0  0  0  0  0  0  0  0  0
   -2.5039  -22.1370   18.4075 C   0  0  0  0  0  0  0  0  0  0  0  0
   -2.2428  -22.1975   16.9015 C   0  0  0  0  0  0  0  0  0  0  0  0
   -3.1149  -23.2104   16.1768 C   0  0  0  0  0  0  0  0  0  0  0  0
 25  1  1  0
 26  1  1  6
  2 29  1  0
  2 30  1  6
 32  2  1  0
 32  3  1  6
  3 33  1  0
  5  4  1  0
  4 28  1  6
  4 32  1  0
 26  5  1  0
  5 27  1  1
  7  6  1  0
  8  7  1  0
  9  8  1  0
 10  9  1  0
 11 10  1  0
 12 11  1  0
 13 12  1  0
 14 13  1  0
 15 14  1  0
 16 15  1  0
 17 16  1  0
 18 17  1  0
 19 18  1  0
 20 19  1  0
 20 21  1  6
 22 20  1  0
 22 23  1  1
 24 22  1  0
 24 25  1  6
 24 41  1  0
 26 29  1  0
 30 31  1  0
 33 34  1  0
 34 35  2  0
 34 40  1  0
 35 36  1  0
 36 37  2  0
 37 38  1  0
 37 39  1  0
 39 40  2  0
 41 42  1  0
 42 43  2  0
 42 44  1  0
 44 45  1  0
 45 46  1  0
 46 47  1  0
 47 48  1  0
 48 49  1  0
 49 50  1  0
 50 51  1  0
 51 52  1  0
 52 53  1  0
 53 54  1  0
 54 55  1  0
 55 56  1  0
 56 57  1  0
 57 58  1  0
 58 59  1  0
 59 60  1  0
 60 61  1  0
 61 62  1  0
 62 63  1  0
 63 64  1  0
 64 65  1  0
 65 66  1  0
 66 67  1  0
 67 68  1  0
M  END
$$$$
