
     RDKit          3D

 68 69  0  0  0  0  0  0  0  0999 V2000
  -14.1444  -24.5297   19.6002 O   0  0  0  0  0  0  0  0  0  0  0  0
  -14.6485  -27.8324   21.0439 C   0  0  2  0  0  0  0  0  0  0  0  0
  -15.4327  -26.7720   23.1188 O   0  0  0  0  0  0  0  0  0  0  0  0
  -13.0744  -26.5796   22.5064 C   0  0  1  0  0  0  0  0  0  0  0  0
  -13.3669  -25.2604   21.7748 C   0  0  2  0  0  0  0  0  0  0  0  0
   -2.7021  -13.1486   25.5546 C   0  0  0  0  0  0  0  0  0  0  0  0
   -4.0375  -13.8665   25.6581 C   0  0  0  0  0  0  0  0  0  0  0  0
   -4.2560  -14.9232   24.5706 C   0  0  0  0  0  0  0  0  0  0  0  0
   -5.6438  -15.5681   24.6228 C   0  0  0  0  0  0  0  0  0  0  0  0
   -5.6543  -17.0457   24.2041 C   0  0  0  0  0  0  0  0  0  0  0  0
   -6.3246  -17.3585   22.8614 C   0  0  0  0  0  0  0  0  0  0  0  0
   -6.3020  -18.8470   22.5030 C   0  0  0  0  0  0  0  0  0  0  0  0
   -7.0347  -19.1268   21.1867 C   0  0  0  0  0  0  0  0  0  0  0  0
   -7.0468  -20.6268   20.8864 C   0  0  0  0  0  0  0  0  0  0  0  0
   -8.1033  -21.0521   19.8641 C   0  0  0  0  0  0  0  0  0  0  0  0
   -7.6923  -20.9004   18.3986 C   0  0  0  0  0  0  0  0  0  0  0  0
   -8.8142  -20.7422   17.3699 C   0  0  0  0  0  0  0  0  0  0  0  0
   -9.7085  -21.9646   17.1360 C   0  0  0  0  0  0  0  0  0  0  0  0
  -10.8220  -21.8290   16.0896 C   0  0  0  0  0  0  0  0  0  0  0  0
  -11.6803  -23.0925   15.8603 C   0  0  1  0  0  0  0  0  0  0  0  0
  -10.9093  -24.1002   15.2139 O   0  0  0  0  0  0  0  0  0  0  0  0
  -12.2508  -23.6149   17.2040 C   0  0  1  0  0  0  0  0  0  0  0  0
  -12.0808  -22.5970   18.1995 O   0  0  0  0  0  0  0  0  0  0  0  0
  -13.7177  -24.1495   17.1633 C   0  0  2  0  0  0  0  0  0  0  0  0
  -14.0083  -25.1472   18.3112 C   0  0  0  0  0  0  0  0  0  0  0  0
  -14.3952  -25.4831   20.6407 C   0  0  2  0  0  0  0  0  0  0  0  0
  -12.1093  -24.7494   21.2915 O   0  0  0  0  0  0  0  0  0  0  0  0
  -12.5679  -26.3092   23.8208 O   0  0  0  0  0  0  0  0  0  0  0  0
  -14.2507  -26.7971   20.1161 O   0  0  0  0  0  0  0  0  0  0  0  0
  -16.1121  -28.2326   20.7785 C   0  0  0  0  0  0  0  0  0  0  0  0
  -16.5671  -27.8243   19.4876 O   0  0  0  0  0  0  0  0  0  0  0  0
  -14.3208  -27.4775   22.5263 C   0  0  2  0  0  0  0  0  0  0  0  0
  -16.2371  -27.5801   23.9859 C   0  0  0  0  0  0  0  0  0  0  0  0
  -16.1639  -27.0654   25.4015 C   0  0  0  0  0  0  0  0  0  0  0  0
  -16.6281  -25.7811   25.7211 C   0  0  0  0  0  0  0  0  0  0  0  0
  -16.5996  -25.3229   27.0408 C   0  0  0  0  0  0  0  0  0  0  0  0
  -16.1103  -26.1401   28.0642 C   0  0  0  0  0  0  0  0  0  0  0  0
  -16.0652  -25.6456   29.4796 C   0  0  0  0  0  0  0  0  0  0  0  0
  -15.6198  -27.4111   27.7436 C   0  0  0  0  0  0  0  0  0  0  0  0
  -15.6481  -27.8711   26.4258 C   0  0  0  0  0  0  0  0  0  0  0  0
  -14.0829  -24.7243   15.8606 N   0  0  0  0  0  0  0  0  0  0  0  0
  -13.1475  -25.2911   15.0261 C   0  0  0  0  0  0  0  0  0  0  0  0
  -13.3406  -25.4198   13.8219 O   0  0  0  0  0  0  0  0  0  0  0  0
  -11.8857  -25.7356   15.7410 C   0  0  0  0  0  0  0  0  0  0  0  0
  -11.0282  -26.6573   14.8722 C   0  0  0  0  0  0  0  0  0  0  0  0
  -10.3742  -25.9040   13.7065 C   0  0  0  0  0  0  0  0  0  0  0  0
   -8.8952  -26.2554   13.5178 C   0  0  0  0  0  0  0  0  0  0  0  0
   -7.9493  -25.6083   14.5408 C   0  0  0  0  0  0  0  0  0  0  0  0
   -6.6602  -25.0731   13.9118 C   0  0  0  0  0  0  0  0  0  0  0  0
   -5.7825  -26.2021   13.3672 C   0  0  0  0  0  0  0  0  0  0  0  0
   -4.3575  -26.1027   13.9175 C   0  0  0  0  0  0  0  0  0  0  0  0
   -3.3347  -26.7083   12.9537 C   0  0  0  0  0  0  0  0  0  0  0  0
   -3.3086  -28.2402   13.0002 C   0  0  0  0  0  0  0  0  0  0  0  0
   -3.0082  -28.8765   11.6396 C   0  0  0  0  0  0  0  0  0  0  0  0
   -4.1658  -28.6650   10.6607 C   0  0  0  0  0  0  0  0  0  0  0  0
   -5.1297  -29.8545   10.6677 C   0  0  0  0  0  0  0  0  0  0  0  0
   -6.0876  -29.7884   11.8601 C   0  0  0  0  0  0  0  0  0  0  0  0
   -7.4357  -30.4307   11.5336 C   0  0  0  0  0  0  0  0  0  0  0  0
   -8.4488  -30.3592   12.6792 C   0  0  0  0  0  0  0  0  0  0  0  0
   -9.7409  -29.5717   12.4364 C   0  0  0  0  0  0  0  0  0  0  0  0
  -10.9050  -29.8824   13.3842 C   0  0  0  0  0  0  0  0  0  0  0  0
  -12.2267  -29.2217   12.9920 C   0  0  0  0  0  0  0  0  0  0  0  0
  -12.8763  -28.4333   14.1351 C   0  0  0  0  0  0  0  0  0  0  0  0
  -13.1931  -29.2267   15.4068 C   0  0  0  0  0  0  0  0  0  0  0  0
  -13.9493  -28.4135   16.4619 C   0  0  0  0  0  0  0  0  0  0  0  0
  -14.6468  -27.2021   15.8358 C   0  0  0  0  0  0  0  0  0  0  0  0
  -15.5445  -26.4515   16.8210 C   0  0  0  0  0  0  0  0  0  0  0  0
  -15.7815  -24.9994   16.4376 C   0  0  0  0  0  0  0  0  0  0  0  0
 25  1  1  0
 26  1  1  6
  2 29  1  0
  2 30  1  1
 32  2  1  0
 32  3  1  6
  3 33  1  0
  5  4  1  0
  4 28  1  1
  4 32  1  0
 26  5  1  0
  5 27  1  6
  7  6  1  0
  8  7  1  0
  9  8  1  0
 10  9  1  0
 11 10  1  0
 12 11  1  0
 13 12  1  0
 14 13  1  0
 15 14  1  0
 16 15  1  0
 17 16  1  0
 18 17  1  0
 19 18  1  0
 20 19  1  0
 20 21  1  1
 22 20  1  0
 22 23  1  1
 24 22  1  0
 24 25  1  1
 24 41  1  0
 26 29  1  0
 30 31  1  0
 33 34  1  0
 34 35  2  0
 34 40  1  0
 35 36  1  0
 36 37  2  0
 37 38  1  0
 37 39  1  0
 39 40  2  0
 41 42  1  0
 42 43  2  0
 42 44  1  0
 44 45  1  0
 45 46  1  0
 46 47  1  0
 47 48  1  0
 48 49  1  0
 49 50  1  0
 50 51  1  0
 51 52  1  0
 52 53  1  0
 53 54  1  0
 54 55  1  0
 55 56  1  0
 56 57  1  0
 57 58  1  0
 58 59  1  0
 59 60  1  0
 60 61  1  0
 61 62  1  0
 62 63  1  0
 63 64  1  0
 64 65  1  0
 65 66  1  0
 66 67  1  0
 67 68  1  0
M  END
$$$$
