
     RDKit          3D

 68 69  0  0  0  0  0  0  0  0999 V2000
  -15.8624  -27.5147   20.6425 O   0  0  0  0  0  0  0  0  0  0  0  0
  -18.3577  -25.7974   22.6602 C   0  0  2  0  0  0  0  0  0  0  0  0
  -18.9661  -27.9485   23.6835 O   0  0  0  0  0  0  0  0  0  0  0  0
  -19.5113  -27.5567   21.3334 C   0  0  1  0  0  0  0  0  0  0  0  0
  -18.1740  -28.1862   20.9131 C   0  0  2  0  0  0  0  0  0  0  0  0
   -3.8895  -17.4961   24.2369 C   0  0  0  0  0  0  0  0  0  0  0  0
   -3.3505  -18.2634   23.0411 C   0  0  0  0  0  0  0  0  0  0  0  0
   -4.4273  -19.0201   22.2569 C   0  0  0  0  0  0  0  0  0  0  0  0
   -4.1951  -20.5330   22.2143 C   0  0  0  0  0  0  0  0  0  0  0  0
   -5.3144  -21.3098   21.5056 C   0  0  0  0  0  0  0  0  0  0  0  0
   -4.9942  -22.7630   21.1373 C   0  0  0  0  0  0  0  0  0  0  0  0
   -5.0755  -23.7236   22.3269 C   0  0  0  0  0  0  0  0  0  0  0  0
   -4.7203  -25.1589   21.9250 C   0  0  0  0  0  0  0  0  0  0  0  0
   -5.9858  -26.0072   21.7864 C   0  0  0  0  0  0  0  0  0  0  0  0
   -6.0945  -27.1410   22.8086 C   0  0  0  0  0  0  0  0  0  0  0  0
   -7.1747  -28.1835   22.5153 C   0  0  0  0  0  0  0  0  0  0  0  0
   -8.4581  -27.6912   21.8426 C   0  0  0  0  0  0  0  0  0  0  0  0
   -9.4686  -28.7645   21.4233 C   0  0  0  0  0  0  0  0  0  0  0  0
  -10.4142  -28.4230   20.2648 C   0  0  0  0  0  0  0  0  0  0  0  0
  -11.3017  -29.5834   19.7630 C   0  0  1  0  0  0  0  0  0  0  0  0
  -10.6403  -30.8289   19.9599 O   0  0  0  0  0  0  0  0  0  0  0  0
  -12.6744  -29.5705   20.4837 C   0  0  1  0  0  0  0  0  0  0  0  0
  -12.4836  -29.9997   21.8385 O   0  0  0  0  0  0  0  0  0  0  0  0
  -13.4764  -28.2326   20.4049 C   0  0  2  0  0  0  0  0  0  0  0  0
  -14.7985  -28.2954   21.2083 C   0  0  0  0  0  0  0  0  0  0  0  0
  -16.9878  -27.4026   21.5232 C   0  0  2  0  0  0  0  0  0  0  0  0
  -18.1433  -28.2073   19.4727 O   0  0  0  0  0  0  0  0  0  0  0  0
  -20.5636  -28.5257   21.2281 O   0  0  0  0  0  0  0  0  0  0  0  0
  -17.3405  -26.0316   21.6594 O   0  0  0  0  0  0  0  0  0  0  0  0
  -17.6925  -25.4285   23.9996 C   0  0  0  0  0  0  0  0  0  0  0  0
  -16.4289  -24.7858   23.8261 O   0  0  0  0  0  0  0  0  0  0  0  0
  -19.4067  -26.9481   22.7400 C   0  0  2  0  0  0  0  0  0  0  0  0
  -19.4951  -27.7746   25.0032 C   0  0  0  0  0  0  0  0  0  0  0  0
  -20.4925  -28.8614   25.3169 C   0  0  0  0  0  0  0  0  0  0  0  0
  -21.8655  -28.5797   25.3688 C   0  0  0  0  0  0  0  0  0  0  0  0
  -22.7910  -29.5968   25.6163 C   0  0  0  0  0  0  0  0  0  0  0  0
  -22.3620  -30.9128   25.8130 C   0  0  0  0  0  0  0  0  0  0  0  0
  -23.3521  -32.0041   26.0932 C   0  0  0  0  0  0  0  0  0  0  0  0
  -20.9906  -31.1913   25.7904 C   0  0  0  0  0  0  0  0  0  0  0  0
  -20.0643  -30.1767   25.5425 C   0  0  0  0  0  0  0  0  0  0  0  0
  -13.7194  -27.7899   19.0244 N   0  0  0  0  0  0  0  0  0  0  0  0
  -12.7509  -27.1551   18.2815 C   0  0  0  0  0  0  0  0  0  0  0  0
  -11.6354  -26.9168   18.7317 O   0  0  0  0  0  0  0  0  0  0  0  0
  -13.2043  -26.7843   16.8824 C   0  0  0  0  0  0  0  0  0  0  0  0
  -12.2024  -25.8676   16.1784 C   0  0  0  0  0  0  0  0  0  0  0  0
  -12.6113  -25.5748   14.7289 C   0  0  0  0  0  0  0  0  0  0  0  0
  -11.5525  -24.7848   13.9534 C   0  0  0  0  0  0  0  0  0  0  0  0
  -11.2911  -23.3695   14.4904 C   0  0  0  0  0  0  0  0  0  0  0  0
  -10.4098  -22.5287   13.5628 C   0  0  0  0  0  0  0  0  0  0  0  0
  -10.2671  -21.0902   14.0646 C   0  0  0  0  0  0  0  0  0  0  0  0
   -9.1963  -20.3366   13.2715 C   0  0  0  0  0  0  0  0  0  0  0  0
   -8.4129  -19.3661   14.1582 C   0  0  0  0  0  0  0  0  0  0  0  0
   -7.8032  -18.2013   13.3702 C   0  0  0  0  0  0  0  0  0  0  0  0
   -8.8433  -17.1684   12.9256 C   0  0  0  0  0  0  0  0  0  0  0  0
   -8.1790  -15.8483   12.5272 C   0  0  0  0  0  0  0  0  0  0  0  0
   -8.1462  -14.8620   13.6979 C   0  0  0  0  0  0  0  0  0  0  0  0
   -6.9239  -13.9437   13.6187 C   0  0  0  0  0  0  0  0  0  0  0  0
   -7.3308  -12.4823   13.4309 C   0  0  0  0  0  0  0  0  0  0  0  0
   -6.2119  -11.4839   13.7389 C   0  0  0  0  0  0  0  0  0  0  0  0
   -5.5546  -10.7663   12.5550 C   0  0  0  0  0  0  0  0  0  0  0  0
   -4.9326   -9.3987   12.8599 C   0  0  0  0  0  0  0  0  0  0  0  0
   -4.0449   -8.8503   11.7424 C   0  0  0  0  0  0  0  0  0  0  0  0
   -2.7985   -8.1213   12.2572 C   0  0  0  0  0  0  0  0  0  0  0  0
   -1.4576   -8.8189   12.0073 C   0  0  0  0  0  0  0  0  0  0  0  0
   -0.2476   -7.8941   12.1714 C   0  0  0  0  0  0  0  0  0  0  0  0
    1.0260   -8.5409   11.6184 C   0  0  0  0  0  0  0  0  0  0  0  0
    2.2777   -7.6918   11.8467 C   0  0  0  0  0  0  0  0  0  0  0  0
    3.0382   -7.3797   10.5677 C   0  0  0  0  0  0  0  0  0  0  0  0
 25  1  1  0
 26  1  1  6
  2 29  1  0
  2 30  1  1
 32  2  1  0
 32  3  1  1
  3 33  1  0
  5  4  1  0
  4 28  1  1
  4 32  1  0
 26  5  1  0
  5 27  1  6
  7  6  1  0
  8  7  1  0
  9  8  1  0
 10  9  1  0
 11 10  1  0
 12 11  1  0
 13 12  1  0
 14 13  1  0
 15 14  1  0
 16 15  1  0
 17 16  1  0
 18 17  1  0
 19 18  1  0
 20 19  1  0
 20 21  1  1
 22 20  1  0
 22 23  1  1
 24 22  1  0
 24 25  1  6
 24 41  1  0
 26 29  1  0
 30 31  1  0
 33 34  1  0
 34 35  2  0
 34 40  1  0
 35 36  1  0
 36 37  2  0
 37 38  1  0
 37 39  1  0
 39 40  2  0
 41 42  1  0
 42 43  2  0
 42 44  1  0
 44 45  1  0
 45 46  1  0
 46 47  1  0
 47 48  1  0
 48 49  1  0
 49 50  1  0
 50 51  1  0
 51 52  1  0
 52 53  1  0
 53 54  1  0
 54 55  1  0
 55 56  1  0
 56 57  1  0
 57 58  1  0
 58 59  1  0
 59 60  1  0
 60 61  1  0
 61 62  1  0
 62 63  1  0
 63 64  1  0
 64 65  1  0
 65 66  1  0
 66 67  1  0
 67 68  1  0
M  END
$$$$
