
     RDKit          3D

 68 69  0  0  0  0  0  0  0  0999 V2000
  -10.2868  -24.1999   17.3711 O   0  0  0  0  0  0  0  0  0  0  0  0
  -13.7338  -25.1448   16.6842 C   0  0  2  0  0  0  0  0  0  0  0  0
  -12.9159  -27.0340   15.3403 O   0  0  0  0  0  0  0  0  0  0  0  0
  -12.5885  -24.7586   14.5103 C   0  0  1  0  0  0  0  0  0  0  0  0
  -11.2113  -24.7038   15.1895 C   0  0  2  0  0  0  0  0  0  0  0  0
   -5.6552  -12.8404   32.7535 C   0  0  0  0  0  0  0  0  0  0  0  0
   -6.2500  -14.2265   32.5687 C   0  0  0  0  0  0  0  0  0  0  0  0
   -7.7771  -14.2633   32.6843 C   0  0  0  0  0  0  0  0  0  0  0  0
   -8.3901  -15.5789   32.1964 C   0  0  0  0  0  0  0  0  0  0  0  0
   -7.8774  -16.0257   30.8194 C   0  0  0  0  0  0  0  0  0  0  0  0
   -8.7473  -15.6344   29.6194 C   0  0  0  0  0  0  0  0  0  0  0  0
   -8.1298  -16.0155   28.2711 C   0  0  0  0  0  0  0  0  0  0  0  0
   -9.0714  -16.8953   27.4420 C   0  0  0  0  0  0  0  0  0  0  0  0
   -9.5065  -16.1666   26.1693 C   0  0  0  0  0  0  0  0  0  0  0  0
   -8.9145  -16.7461   24.8825 C   0  0  0  0  0  0  0  0  0  0  0  0
   -9.3452  -18.1761   24.5517 C   0  0  0  0  0  0  0  0  0  0  0  0
   -8.9240  -18.7369   23.1915 C   0  0  0  0  0  0  0  0  0  0  0  0
   -9.4462  -20.1324   22.8327 C   0  0  0  0  0  0  0  0  0  0  0  0
   -9.2787  -20.5913   21.3787 C   0  0  0  0  0  0  0  0  0  0  0  0
   -9.6954  -22.0498   21.0866 C   0  0  1  0  0  0  0  0  0  0  0  0
  -10.4125  -22.5872   22.1931 O   0  0  0  0  0  0  0  0  0  0  0  0
  -10.5457  -22.1247   19.7923 C   0  0  1  0  0  0  0  0  0  0  0  0
  -11.6015  -21.1587   19.8824 O   0  0  0  0  0  0  0  0  0  0  0  0
   -9.7592  -22.0031   18.4485 C   0  0  2  0  0  0  0  0  0  0  0  0
  -10.4477  -22.7751   17.2963 C   0  0  0  0  0  0  0  0  0  0  0  0
  -11.3489  -24.9062   16.7170 C   0  0  2  0  0  0  0  0  0  0  0  0
  -10.6146  -23.4371   14.8489 O   0  0  0  0  0  0  0  0  0  0  0  0
  -12.4381  -25.0919   13.1235 O   0  0  0  0  0  0  0  0  0  0  0  0
  -12.5972  -24.3862   17.1572 O   0  0  0  0  0  0  0  0  0  0  0  0
  -14.1502  -26.1751   17.7508 C   0  0  0  0  0  0  0  0  0  0  0  0
  -13.1367  -26.3865   18.7347 O   0  0  0  0  0  0  0  0  0  0  0  0
  -13.5221  -25.7264   15.2532 C   0  0  2  0  0  0  0  0  0  0  0  0
  -13.7741  -28.1009   14.9193 C   0  0  0  0  0  0  0  0  0  0  0  0
  -13.8145  -28.1798   13.4139 C   0  0  0  0  0  0  0  0  0  0  0  0
  -14.7998  -28.9365   12.7629 C   0  0  0  0  0  0  0  0  0  0  0  0
  -14.8619  -28.9730   11.3675 C   0  0  0  0  0  0  0  0  0  0  0  0
  -13.9437  -28.2521   10.5983 C   0  0  0  0  0  0  0  0  0  0  0  0
  -13.9990  -28.3007    9.1002 C   0  0  0  0  0  0  0  0  0  0  0  0
  -12.9419  -27.5194   11.2452 C   0  0  0  0  0  0  0  0  0  0  0  0
  -12.8785  -27.4811   12.6393 C   0  0  0  0  0  0  0  0  0  0  0  0
   -8.3470  -22.3920   18.5730 N   0  0  0  0  0  0  0  0  0  0  0  0
   -7.3396  -21.4593   18.6630 C   0  0  0  0  0  0  0  0  0  0  0  0
   -7.4471  -20.4472   19.3470 O   0  0  0  0  0  0  0  0  0  0  0  0
   -6.1148  -21.8068   17.8385 C   0  0  0  0  0  0  0  0  0  0  0  0
   -5.5391  -23.1733   18.2136 C   0  0  0  0  0  0  0  0  0  0  0  0
   -4.3486  -23.5589   17.3259 C   0  0  0  0  0  0  0  0  0  0  0  0
   -4.6527  -24.7313   16.3881 C   0  0  0  0  0  0  0  0  0  0  0  0
   -4.9880  -24.3247   14.9451 C   0  0  0  0  0  0  0  0  0  0  0  0
   -4.5447  -25.3625   13.9106 C   0  0  0  0  0  0  0  0  0  0  0  0
   -4.8648  -24.9142   12.4830 C   0  0  0  0  0  0  0  0  0  0  0  0
   -5.4877  -26.0564   11.6763 C   0  0  0  0  0  0  0  0  0  0  0  0
   -5.8899  -25.6036   10.2709 C   0  0  0  0  0  0  0  0  0  0  0  0
   -6.5328  -26.7246    9.4466 C   0  0  0  0  0  0  0  0  0  0  0  0
   -5.7924  -28.0600    9.5698 C   0  0  0  0  0  0  0  0  0  0  0  0
   -5.1976  -28.4903    8.2268 C   0  0  0  0  0  0  0  0  0  0  0  0
   -4.2890  -29.7128    8.3825 C   0  0  0  0  0  0  0  0  0  0  0  0
   -5.0256  -31.0045    8.0177 C   0  0  0  0  0  0  0  0  0  0  0  0
   -6.1749  -31.2876    8.9848 C   0  0  0  0  0  0  0  0  0  0  0  0
   -7.3815  -31.9656    8.3303 C   0  0  0  0  0  0  0  0  0  0  0  0
   -7.2371  -33.4371    7.9275 C   0  0  0  0  0  0  0  0  0  0  0  0
   -8.2175  -34.4136    8.5876 C   0  0  0  0  0  0  0  0  0  0  0  0
   -8.1126  -35.8501    8.0750 C   0  0  0  0  0  0  0  0  0  0  0  0
   -8.2205  -36.9021    9.1849 C   0  0  0  0  0  0  0  0  0  0  0  0
   -7.5056  -38.2320    8.9256 C   0  0  0  0  0  0  0  0  0  0  0  0
   -6.0033  -38.0785    8.6691 C   0  0  0  0  0  0  0  0  0  0  0  0
   -5.2401  -39.3486    9.0568 C   0  0  0  0  0  0  0  0  0  0  0  0
   -3.7232  -39.2002    8.9270 C   0  0  0  0  0  0  0  0  0  0  0  0
   -2.9556  -40.4421    9.3513 C   0  0  0  0  0  0  0  0  0  0  0  0
 25  1  1  0
 26  1  1  1
  2 29  1  0
  2 30  1  1
 32  2  1  0
 32  3  1  1
  3 33  1  0
  5  4  1  0
  4 28  1  6
  4 32  1  0
 26  5  1  0
  5 27  1  1
  7  6  1  0
  8  7  1  0
  9  8  1  0
 10  9  1  0
 11 10  1  0
 12 11  1  0
 13 12  1  0
 14 13  1  0
 15 14  1  0
 16 15  1  0
 17 16  1  0
 18 17  1  0
 19 18  1  0
 20 19  1  0
 20 21  1  1
 22 20  1  0
 22 23  1  1
 24 22  1  0
 24 25  1  6
 24 41  1  0
 26 29  1  0
 30 31  1  0
 33 34  1  0
 34 35  2  0
 34 40  1  0
 35 36  1  0
 36 37  2  0
 37 38  1  0
 37 39  1  0
 39 40  2  0
 41 42  1  0
 42 43  2  0
 42 44  1  0
 44 45  1  0
 45 46  1  0
 46 47  1  0
 47 48  1  0
 48 49  1  0
 49 50  1  0
 50 51  1  0
 51 52  1  0
 52 53  1  0
 53 54  1  0
 54 55  1  0
 55 56  1  0
 56 57  1  0
 57 58  1  0
 58 59  1  0
 59 60  1  0
 60 61  1  0
 61 62  1  0
 62 63  1  0
 63 64  1  0
 64 65  1  0
 65 66  1  0
 66 67  1  0
 67 68  1  0
M  END
$$$$
