
     RDKit          3D

 68 69  0  0  0  0  0  0  0  0999 V2000
  -12.0445  -24.2644   18.6877 O   0  0  0  0  0  0  0  0  0  0  0  0
  -11.9045  -23.2873   22.1909 C   0  0  2  0  0  0  0  0  0  0  0  0
  -11.5195  -20.9610   21.4950 O   0  0  0  0  0  0  0  0  0  0  0  0
   -9.7645  -22.6188   21.1141 C   0  0  1  0  0  0  0  0  0  0  0  0
  -10.3260  -22.8981   19.7113 C   0  0  2  0  0  0  0  0  0  0  0  0
  -12.8691  -21.1951    4.4148 C   0  0  0  0  0  0  0  0  0  0  0  0
  -11.7536  -22.1269    4.8582 C   0  0  0  0  0  0  0  0  0  0  0  0
  -11.7235  -22.3788    6.3690 C   0  0  0  0  0  0  0  0  0  0  0  0
  -13.1176  -22.4766    6.9947 C   0  0  0  0  0  0  0  0  0  0  0  0
  -13.5251  -21.2294    7.7928 C   0  0  0  0  0  0  0  0  0  0  0  0
  -14.9018  -21.2824    8.4650 C   0  0  0  0  0  0  0  0  0  0  0  0
  -15.0523  -22.4439    9.4513 C   0  0  0  0  0  0  0  0  0  0  0  0
  -16.4095  -22.4150   10.1619 C   0  0  0  0  0  0  0  0  0  0  0  0
  -16.3640  -21.4776   11.3700 C   0  0  0  0  0  0  0  0  0  0  0  0
  -15.1001  -21.6151   12.2219 C   0  0  0  0  0  0  0  0  0  0  0  0
  -15.2530  -22.4643   13.4849 C   0  0  0  0  0  0  0  0  0  0  0  0
  -14.8947  -23.9482   13.3780 C   0  0  0  0  0  0  0  0  0  0  0  0
  -15.1874  -24.8154   14.6073 C   0  0  0  0  0  0  0  0  0  0  0  0
  -14.8965  -26.3171   14.4915 C   0  0  0  0  0  0  0  0  0  0  0  0
  -14.4694  -27.0173   15.8004 C   0  0  1  0  0  0  0  0  0  0  0  0
  -13.4057  -27.9292   15.5458 O   0  0  0  0  0  0  0  0  0  0  0  0
  -14.0530  -25.9718   16.8669 C   0  0  1  0  0  0  0  0  0  0  0  0
  -15.2373  -25.4632   17.4952 O   0  0  0  0  0  0  0  0  0  0  0  0
  -12.9966  -26.4463   17.9148 C   0  0  2  0  0  0  0  0  0  0  0  0
  -12.8083  -25.4217   19.0602 C   0  0  0  0  0  0  0  0  0  0  0  0
  -11.7879  -23.3963   19.7992 C   0  0  2  0  0  0  0  0  0  0  0  0
   -9.4508  -23.8536   19.0809 O   0  0  0  0  0  0  0  0  0  0  0  0
   -8.6651  -21.7016   21.0282 O   0  0  0  0  0  0  0  0  0  0  0  0
  -11.9744  -24.1187   21.0099 O   0  0  0  0  0  0  0  0  0  0  0  0
  -13.3235  -22.8544   22.6054 C   0  0  0  0  0  0  0  0  0  0  0  0
  -13.6570  -23.2655   23.9320 O   0  0  0  0  0  0  0  0  0  0  0  0
  -10.8742  -22.1251   22.0548 C   0  0  2  0  0  0  0  0  0  0  0  0
  -10.8402  -19.7309   21.7729 C   0  0  0  0  0  0  0  0  0  0  0  0
  -11.4498  -19.0538   22.9747 C   0  0  0  0  0  0  0  0  0  0  0  0
  -12.7213  -19.4239   23.4366 C   0  0  0  0  0  0  0  0  0  0  0  0
  -13.2655  -18.8260   24.5762 C   0  0  0  0  0  0  0  0  0  0  0  0
  -12.5484  -17.8509   25.2758 C   0  0  0  0  0  0  0  0  0  0  0  0
  -13.1361  -17.1970   26.4911 C   0  0  0  0  0  0  0  0  0  0  0  0
  -11.2917  -17.4592   24.8003 C   0  0  0  0  0  0  0  0  0  0  0  0
  -10.7458  -18.0559   23.6624 C   0  0  0  0  0  0  0  0  0  0  0  0
  -11.7056  -26.8009   17.3078 N   0  0  0  0  0  0  0  0  0  0  0  0
  -11.1483  -28.0498   17.4578 C   0  0  0  0  0  0  0  0  0  0  0  0
  -11.7047  -28.9404   18.0911 O   0  0  0  0  0  0  0  0  0  0  0  0
   -9.8007  -28.1993   16.7780 C   0  0  0  0  0  0  0  0  0  0  0  0
   -9.7256  -29.4666   15.9249 C   0  0  0  0  0  0  0  0  0  0  0  0
   -8.3729  -29.6013   15.2134 C   0  0  0  0  0  0  0  0  0  0  0  0
   -8.2903  -30.8334   14.3070 C   0  0  0  0  0  0  0  0  0  0  0  0
   -6.8794  -31.1528   13.7902 C   0  0  0  0  0  0  0  0  0  0  0  0
   -6.3900  -32.5440   14.2015 C   0  0  0  0  0  0  0  0  0  0  0  0
   -5.7688  -33.2987   13.0242 C   0  0  0  0  0  0  0  0  0  0  0  0
   -4.2770  -32.9807   12.8950 C   0  0  0  0  0  0  0  0  0  0  0  0
   -3.4104  -34.2159   13.1502 C   0  0  0  0  0  0  0  0  0  0  0  0
   -1.9457  -33.8657   13.4357 C   0  0  0  0  0  0  0  0  0  0  0  0
   -1.1151  -35.0747   13.8773 C   0  0  0  0  0  0  0  0  0  0  0  0
   -1.2114  -35.2913   15.3894 C   0  0  0  0  0  0  0  0  0  0  0  0
   -0.3841  -36.4997   15.8360 C   0  0  0  0  0  0  0  0  0  0  0  0
    0.6077  -36.1192   16.9386 C   0  0  0  0  0  0  0  0  0  0  0  0
    1.3950  -37.3341   17.4292 C   0  0  0  0  0  0  0  0  0  0  0  0
    0.6015  -38.2482   18.3665 C   0  0  0  0  0  0  0  0  0  0  0  0
    0.8801  -39.7535   18.2942 C   0  0  0  0  0  0  0  0  0  0  0  0
    0.0694  -40.6335   19.2527 C   0  0  0  0  0  0  0  0  0  0  0  0
   -1.1786  -39.9575   19.8209 C   0  0  0  0  0  0  0  0  0  0  0  0
   -2.2812  -40.9470   20.2149 C   0  0  0  0  0  0  0  0  0  0  0  0
   -3.5940  -40.3320   20.7104 C   0  0  0  0  0  0  0  0  0  0  0  0
   -4.5877  -41.3654   21.2499 C   0  0  0  0  0  0  0  0  0  0  0  0
   -5.8379  -40.6896   21.8209 C   0  0  0  0  0  0  0  0  0  0  0  0
   -5.7329  -40.4022   23.3197 C   0  0  0  0  0  0  0  0  0  0  0  0
   -6.9779  -39.7495   23.8989 C   0  0  0  0  0  0  0  0  0  0  0  0
 25  1  1  0
 26  1  1  6
  2 29  1  0
  2 30  1  6
 32  2  1  0
 32  3  1  6
  3 33  1  0
  5  4  1  0
  4 28  1  6
  4 32  1  0
 26  5  1  0
  5 27  1  1
  7  6  1  0
  8  7  1  0
  9  8  1  0
 10  9  1  0
 11 10  1  0
 12 11  1  0
 13 12  1  0
 14 13  1  0
 15 14  1  0
 16 15  1  0
 17 16  1  0
 18 17  1  0
 19 18  1  0
 20 19  1  0
 20 21  1  6
 22 20  1  0
 22 23  1  1
 24 22  1  0
 24 25  1  1
 24 41  1  0
 26 29  1  0
 30 31  1  0
 33 34  1  0
 34 35  2  0
 34 40  1  0
 35 36  1  0
 36 37  2  0
 37 38  1  0
 37 39  1  0
 39 40  2  0
 41 42  1  0
 42 43  2  0
 42 44  1  0
 44 45  1  0
 45 46  1  0
 46 47  1  0
 47 48  1  0
 48 49  1  0
 49 50  1  0
 50 51  1  0
 51 52  1  0
 52 53  1  0
 53 54  1  0
 54 55  1  0
 55 56  1  0
 56 57  1  0
 57 58  1  0
 58 59  1  0
 59 60  1  0
 60 61  1  0
 61 62  1  0
 62 63  1  0
 63 64  1  0
 64 65  1  0
 65 66  1  0
 66 67  1  0
 67 68  1  0
M  END
$$$$
