
     RDKit          3D

 68 69  0  0  0  0  0  0  0  0999 V2000
  -14.7262  -26.9189   19.9382 O   0  0  0  0  0  0  0  0  0  0  0  0
  -17.1239  -25.1747   22.0489 C   0  0  2  0  0  0  0  0  0  0  0  0
  -15.5150  -23.3331   22.3021 O   0  0  0  0  0  0  0  0  0  0  0  0
  -15.0280  -25.4861   23.3514 C   0  0  1  0  0  0  0  0  0  0  0  0
  -14.2565  -25.9279   22.0981 C   0  0  2  0  0  0  0  0  0  0  0  0
   -6.2379  -36.9713    4.7830 C   0  0  0  0  0  0  0  0  0  0  0  0
   -6.7957  -36.3741    6.0642 C   0  0  0  0  0  0  0  0  0  0  0  0
   -7.6296  -37.3575    6.8916 C   0  0  0  0  0  0  0  0  0  0  0  0
   -8.2375  -36.7284    8.1483 C   0  0  0  0  0  0  0  0  0  0  0  0
   -9.3035  -37.6040    8.8233 C   0  0  0  0  0  0  0  0  0  0  0  0
   -9.9798  -37.0041   10.0613 C   0  0  0  0  0  0  0  0  0  0  0  0
  -10.5677  -35.6114    9.8180 C   0  0  0  0  0  0  0  0  0  0  0  0
  -11.2470  -35.0530   11.0728 C   0  0  0  0  0  0  0  0  0  0  0  0
  -11.8457  -33.6736   10.7914 C   0  0  0  0  0  0  0  0  0  0  0  0
  -12.8114  -33.1783   11.8704 C   0  0  0  0  0  0  0  0  0  0  0  0
  -12.5455  -31.7626   12.3849 C   0  0  0  0  0  0  0  0  0  0  0  0
  -13.4776  -31.2273   13.4742 C   0  0  0  0  0  0  0  0  0  0  0  0
  -13.2381  -29.7854   13.9350 C   0  0  0  0  0  0  0  0  0  0  0  0
  -13.5497  -29.4567   15.4006 C   0  0  0  0  0  0  0  0  0  0  0  0
  -14.5423  -28.2952   15.6279 C   0  0  1  0  0  0  0  0  0  0  0  0
  -15.8049  -28.6069   15.0479 O   0  0  0  0  0  0  0  0  0  0  0  0
  -14.6923  -27.9951   17.1416 C   0  0  1  0  0  0  0  0  0  0  0  0
  -15.1647  -29.1793   17.7979 O   0  0  0  0  0  0  0  0  0  0  0  0
  -13.4336  -27.4004   17.8497 C   0  0  2  0  0  0  0  0  0  0  0  0
  -13.8107  -26.3943   18.9645 C   0  0  0  0  0  0  0  0  0  0  0  0
  -15.1810  -25.9178   20.8578 C   0  0  2  0  0  0  0  0  0  0  0  0
  -13.7064  -27.2317   22.3699 O   0  0  0  0  0  0  0  0  0  0  0  0
  -14.1135  -25.0006   24.3440 O   0  0  0  0  0  0  0  0  0  0  0  0
  -16.5140  -26.2167   21.2532 O   0  0  0  0  0  0  0  0  0  0  0  0
  -17.9436  -24.2399   21.1395 C   0  0  0  0  0  0  0  0  0  0  0  0
  -18.4080  -24.8931   19.9573 O   0  0  0  0  0  0  0  0  0  0  0  0
  -16.1086  -24.4561   22.9888 C   0  0  2  0  0  0  0  0  0  0  0  0
  -16.0901  -22.0687   22.6521 C   0  0  0  0  0  0  0  0  0  0  0  0
  -16.1417  -21.9119   24.1511 C   0  0  0  0  0  0  0  0  0  0  0  0
  -14.9667  -21.7152   24.8912 C   0  0  0  0  0  0  0  0  0  0  0  0
  -15.0210  -21.5265   26.2746 C   0  0  0  0  0  0  0  0  0  0  0  0
  -16.2494  -21.5276   26.9422 C   0  0  0  0  0  0  0  0  0  0  0  0
  -16.3098  -21.3396   28.4291 C   0  0  0  0  0  0  0  0  0  0  0  0
  -17.4209  -21.7524   26.2101 C   0  0  0  0  0  0  0  0  0  0  0  0
  -17.3688  -21.9405   24.8277 C   0  0  0  0  0  0  0  0  0  0  0  0
  -12.4722  -26.8081   16.9086 N   0  0  0  0  0  0  0  0  0  0  0  0
  -11.1482  -26.6278   17.2362 C   0  0  0  0  0  0  0  0  0  0  0  0
  -10.4601  -27.5345   17.6926 O   0  0  0  0  0  0  0  0  0  0  0  0
  -10.6467  -25.2186   16.9850 C   0  0  0  0  0  0  0  0  0  0  0  0
   -9.6334  -25.1654   15.8405 C   0  0  0  0  0  0  0  0  0  0  0  0
   -8.1968  -24.9965   16.3520 C   0  0  0  0  0  0  0  0  0  0  0  0
   -7.5715  -23.6552   15.9565 C   0  0  0  0  0  0  0  0  0  0  0  0
   -6.1518  -23.4280   16.4975 C   0  0  0  0  0  0  0  0  0  0  0  0
   -5.5412  -22.0999   16.0423 C   0  0  0  0  0  0  0  0  0  0  0  0
   -5.2762  -21.1624   17.2222 C   0  0  0  0  0  0  0  0  0  0  0  0
   -4.2477  -20.0910   16.8509 C   0  0  0  0  0  0  0  0  0  0  0  0
   -4.7245  -18.6896   17.2389 C   0  0  0  0  0  0  0  0  0  0  0  0
   -5.4608  -18.6632   18.5830 C   0  0  0  0  0  0  0  0  0  0  0  0
   -5.8562  -17.2501   19.0225 C   0  0  0  0  0  0  0  0  0  0  0  0
   -6.6923  -17.2814   20.3042 C   0  0  0  0  0  0  0  0  0  0  0  0
   -7.1390  -15.8761   20.7162 C   0  0  0  0  0  0  0  0  0  0  0  0
   -6.9038  -15.6320   22.2092 C   0  0  0  0  0  0  0  0  0  0  0  0
   -8.0788  -14.8928   22.8490 C   0  0  0  0  0  0  0  0  0  0  0  0
   -9.4103  -15.6414   22.7469 C   0  0  0  0  0  0  0  0  0  0  0  0
  -10.0756  -16.0885   24.0530 C   0  0  0  0  0  0  0  0  0  0  0  0
   -9.9157  -15.1405   25.2471 C   0  0  0  0  0  0  0  0  0  0  0  0
   -9.3832  -15.8112   26.5135 C   0  0  0  0  0  0  0  0  0  0  0  0
   -8.0353  -15.2491   26.9796 C   0  0  0  0  0  0  0  0  0  0  0  0
   -7.5433  -15.7253   28.3502 C   0  0  0  0  0  0  0  0  0  0  0  0
   -6.1665  -15.1725   28.7312 C   0  0  0  0  0  0  0  0  0  0  0  0
   -6.2733  -14.1437   29.8608 C   0  0  0  0  0  0  0  0  0  0  0  0
   -5.7648  -14.6720   31.2033 C   0  0  0  0  0  0  0  0  0  0  0  0
   -5.7515  -13.6203   32.3012 C   0  0  0  0  0  0  0  0  0  0  0  0
 25  1  1  0
 26  1  1  6
  2 29  1  0
  2 30  1  6
 32  2  1  0
 32  3  1  6
  3 33  1  0
  5  4  1  0
  4 28  1  1
  4 32  1  0
 26  5  1  0
  5 27  1  1
  7  6  1  0
  8  7  1  0
  9  8  1  0
 10  9  1  0
 11 10  1  0
 12 11  1  0
 13 12  1  0
 14 13  1  0
 15 14  1  0
 16 15  1  0
 17 16  1  0
 18 17  1  0
 19 18  1  0
 20 19  1  0
 20 21  1  1
 22 20  1  0
 22 23  1  1
 24 22  1  0
 24 25  1  1
 24 41  1  0
 26 29  1  0
 30 31  1  0
 33 34  1  0
 34 35  2  0
 34 40  1  0
 35 36  1  0
 36 37  2  0
 37 38  1  0
 37 39  1  0
 39 40  2  0
 41 42  1  0
 42 43  2  0
 42 44  1  0
 44 45  1  0
 45 46  1  0
 46 47  1  0
 47 48  1  0
 48 49  1  0
 49 50  1  0
 50 51  1  0
 51 52  1  0
 52 53  1  0
 53 54  1  0
 54 55  1  0
 55 56  1  0
 56 57  1  0
 57 58  1  0
 58 59  1  0
 59 60  1  0
 60 61  1  0
 61 62  1  0
 62 63  1  0
 63 64  1  0
 64 65  1  0
 65 66  1  0
 66 67  1  0
 67 68  1  0
M  END
$$$$
