
     RDKit          3D

 68 69  0  0  0  0  0  0  0  0999 V2000
  -16.2568  -30.1625   18.6473 O   0  0  0  0  0  0  0  0  0  0  0  0
  -19.0093  -28.4143   20.2642 C   0  0  2  0  0  0  0  0  0  0  0  0
  -20.5430  -29.3304   18.5751 O   0  0  0  0  0  0  0  0  0  0  0  0
  -18.8947  -27.6577   17.8977 C   0  0  1  0  0  0  0  0  0  0  0  0
  -17.9025  -28.7743   17.5371 C   0  0  2  0  0  0  0  0  0  0  0  0
   -1.7376  -22.3145   18.4474 C   0  0  0  0  0  0  0  0  0  0  0  0
   -2.4460  -21.6640   17.2709 C   0  0  0  0  0  0  0  0  0  0  0  0
   -2.9818  -22.6654   16.2427 C   0  0  0  0  0  0  0  0  0  0  0  0
   -3.7502  -22.0034   15.0956 C   0  0  0  0  0  0  0  0  0  0  0  0
   -4.2490  -22.9943   14.0336 C   0  0  0  0  0  0  0  0  0  0  0  0
   -5.0136  -24.2143   14.5598 C   0  0  0  0  0  0  0  0  0  0  0  0
   -5.6981  -25.0252   13.4559 C   0  0  0  0  0  0  0  0  0  0  0  0
   -6.2371  -26.3599   13.9810 C   0  0  0  0  0  0  0  0  0  0  0  0
   -7.7555  -26.4318   13.8087 C   0  0  0  0  0  0  0  0  0  0  0  0
   -8.3880  -27.7127   14.3576 C   0  0  0  0  0  0  0  0  0  0  0  0
   -9.9084  -27.8028   14.2164 C   0  0  0  0  0  0  0  0  0  0  0  0
  -10.5872  -29.0660   14.7506 C   0  0  0  0  0  0  0  0  0  0  0  0
  -11.7083  -28.8618   15.7755 C   0  0  0  0  0  0  0  0  0  0  0  0
  -11.3300  -28.1984   17.1058 C   0  0  0  0  0  0  0  0  0  0  0  0
  -11.8135  -28.9293   18.3778 C   0  0  1  0  0  0  0  0  0  0  0  0
  -11.6441  -28.0947   19.5189 O   0  0  0  0  0  0  0  0  0  0  0  0
  -13.2951  -29.3610   18.2281 C   0  0  1  0  0  0  0  0  0  0  0  0
  -13.3592  -30.7932   18.2573 O   0  0  0  0  0  0  0  0  0  0  0  0
  -14.3016  -28.7131   19.2314 C   0  0  2  0  0  0  0  0  0  0  0  0
  -15.3874  -29.7134   19.6980 C   0  0  0  0  0  0  0  0  0  0  0  0
  -17.5867  -29.6435   18.7773 C   0  0  2  0  0  0  0  0  0  0  0  0
  -16.7289  -28.1448   16.9869 O   0  0  0  0  0  0  0  0  0  0  0  0
  -19.5720  -27.2042   16.7175 O   0  0  0  0  0  0  0  0  0  0  0  0
  -17.6650  -28.8459   19.9521 O   0  0  0  0  0  0  0  0  0  0  0  0
  -19.6471  -29.3906   21.2707 C   0  0  0  0  0  0  0  0  0  0  0  0
  -18.7240  -29.8322   22.2671 O   0  0  0  0  0  0  0  0  0  0  0  0
  -19.8647  -28.1261   18.9930 C   0  0  2  0  0  0  0  0  0  0  0  0
  -21.9715  -29.2257   18.5866 C   0  0  0  0  0  0  0  0  0  0  0  0
  -22.5114  -29.2477   17.1786 C   0  0  0  0  0  0  0  0  0  0  0  0
  -22.0404  -30.1833   16.2459 C   0  0  0  0  0  0  0  0  0  0  0  0
  -22.5732  -30.2303   14.9551 C   0  0  0  0  0  0  0  0  0  0  0  0
  -23.5873  -29.3464   14.5745 C   0  0  0  0  0  0  0  0  0  0  0  0
  -24.1512  -29.3850   13.1850 C   0  0  0  0  0  0  0  0  0  0  0  0
  -24.0387  -28.3929   15.4942 C   0  0  0  0  0  0  0  0  0  0  0  0
  -23.5082  -28.3448   16.7847 C   0  0  0  0  0  0  0  0  0  0  0  0
  -14.9096  -27.4777   18.7167 N   0  0  0  0  0  0  0  0  0  0  0  0
  -14.1515  -26.3881   18.3549 C   0  0  0  0  0  0  0  0  0  0  0  0
  -13.7652  -26.2156   17.2039 O   0  0  0  0  0  0  0  0  0  0  0  0
  -13.8465  -25.4507   19.5076 C   0  0  0  0  0  0  0  0  0  0  0  0
  -14.1196  -23.9895   19.1468 C   0  0  0  0  0  0  0  0  0  0  0  0
  -12.8298  -23.2301   18.8095 C   0  0  0  0  0  0  0  0  0  0  0  0
  -12.0642  -22.7638   20.0516 C   0  0  0  0  0  0  0  0  0  0  0  0
  -10.8037  -21.9382   19.7525 C   0  0  0  0  0  0  0  0  0  0  0  0
  -10.0970  -21.4420   21.0168 C   0  0  0  0  0  0  0  0  0  0  0  0
   -8.6111  -21.1734   20.7687 C   0  0  0  0  0  0  0  0  0  0  0  0
   -7.9196  -20.6945   22.0478 C   0  0  0  0  0  0  0  0  0  0  0  0
   -7.1565  -19.3872   21.8236 C   0  0  0  0  0  0  0  0  0  0  0  0
   -7.6419  -18.2523   22.7324 C   0  0  0  0  0  0  0  0  0  0  0  0
   -7.7599  -16.9098   22.0042 C   0  0  0  0  0  0  0  0  0  0  0  0
   -6.7937  -15.8757   22.5873 C   0  0  0  0  0  0  0  0  0  0  0  0
   -7.2397  -14.4473   22.2635 C   0  0  0  0  0  0  0  0  0  0  0  0
   -6.1209  -13.6554   21.5815 C   0  0  0  0  0  0  0  0  0  0  0  0
   -6.0155  -12.2369   22.1412 C   0  0  0  0  0  0  0  0  0  0  0  0
   -4.9855  -12.0898   23.2643 C   0  0  0  0  0  0  0  0  0  0  0  0
   -3.7314  -12.9682   23.1972 C   0  0  0  0  0  0  0  0  0  0  0  0
   -2.8918  -13.0391   24.4780 C   0  0  0  0  0  0  0  0  0  0  0  0
   -1.6743  -13.9585   24.3796 C   0  0  0  0  0  0  0  0  0  0  0  0
   -0.3496  -13.2010   24.2327 C   0  0  0  0  0  0  0  0  0  0  0  0
    0.9100  -14.0636   24.1037 C   0  0  0  0  0  0  0  0  0  0  0  0
    2.1940  -13.2475   23.9262 C   0  0  0  0  0  0  0  0  0  0  0  0
    3.4197  -14.1581   23.8056 C   0  0  0  0  0  0  0  0  0  0  0  0
    4.3693  -13.7400   22.6816 C   0  0  0  0  0  0  0  0  0  0  0  0
    5.8181  -13.6206   23.1271 C   0  0  0  0  0  0  0  0  0  0  0  0
 25  1  1  0
 26  1  1  6
  2 29  1  0
  2 30  1  6
 32  2  1  0
 32  3  1  6
  3 33  1  0
  5  4  1  0
  4 28  1  6
  4 32  1  0
 26  5  1  0
  5 27  1  1
  7  6  1  0
  8  7  1  0
  9  8  1  0
 10  9  1  0
 11 10  1  0
 12 11  1  0
 13 12  1  0
 14 13  1  0
 15 14  1  0
 16 15  1  0
 17 16  1  0
 18 17  1  0
 19 18  1  0
 20 19  1  0
 20 21  1  1
 22 20  1  0
 22 23  1  1
 24 22  1  0
 24 25  1  6
 24 41  1  0
 26 29  1  0
 30 31  1  0
 33 34  1  0
 34 35  2  0
 34 40  1  0
 35 36  1  0
 36 37  2  0
 37 38  1  0
 37 39  1  0
 39 40  2  0
 41 42  1  0
 42 43  2  0
 42 44  1  0
 44 45  1  0
 45 46  1  0
 46 47  1  0
 47 48  1  0
 48 49  1  0
 49 50  1  0
 50 51  1  0
 51 52  1  0
 52 53  1  0
 53 54  1  0
 54 55  1  0
 55 56  1  0
 56 57  1  0
 57 58  1  0
 58 59  1  0
 59 60  1  0
 60 61  1  0
 61 62  1  0
 62 63  1  0
 63 64  1  0
 64 65  1  0
 65 66  1  0
 66 67  1  0
 67 68  1  0
M  END
$$$$
