
     RDKit          3D

 27 29  0  0  0  0  0  0  0  0999 V2000
  -12.0831   29.1302    9.8349 C   0  0  0  0  0  0  0  0  0  0  0  0
  -14.8663   29.1978    9.3827 C   0  0  0  0  0  0  0  0  0  0  0  0
  -14.4001   28.7423   10.5826 C   0  0  0  0  0  0  0  0  0  0  0  0
  -13.0385   28.7203   10.7772 C   0  0  0  0  0  0  0  0  0  0  0  0
  -15.1899   31.6493    4.5239 C   0  0  0  0  0  0  0  0  0  0  0  0
  -15.2719   28.2549   11.6477 C   0  0  0  0  0  0  0  0  0  0  0  0
  -10.6834   29.0220   10.1803 C   0  0  0  0  0  0  0  0  0  0  0  0
  -12.6143   29.5785    8.6463 C   0  0  0  0  0  0  0  0  0  0  0  0
  -13.9457   29.5990    8.4594 N   0  0  0  0  0  0  0  0  0  0  0  0
  -11.7425   30.0463    7.6362 N   0  0  0  0  0  0  0  0  0  0  0  0
  -16.2402   29.2856    9.0809 N   0  0  0  0  0  0  0  0  0  0  0  0
  -12.0824   30.8611    6.5283 C   0  0  0  0  0  0  0  0  0  0  0  0
  -13.3986   30.8831    6.0474 C   0  0  0  0  0  0  0  0  0  0  0  0
  -13.7946   31.6598    4.9866 C   0  0  0  0  0  0  0  0  0  0  0  0
  -12.8754   32.4679    4.3424 C   0  0  0  0  0  0  0  0  0  0  0  0
  -11.5847   32.4567    4.8015 C   0  0  0  0  0  0  0  0  0  0  0  0
  -11.1850   31.6664    5.8804 C   0  0  0  0  0  0  0  0  0  0  0  0
  -16.9434   29.7755    7.9538 C   0  0  2  0  0  0  0  0  0  0  0  0
  -18.3099   30.2799    8.4704 C   0  0  0  0  0  0  0  0  0  0  0  0
  -19.1412   30.8323    7.3340 C   0  0  0  0  0  0  0  0  0  0  0  0
  -19.3135   29.7807    6.2471 C   0  0  0  0  0  0  0  0  0  0  0  0
  -18.7202   28.4591    6.7567 C   0  0  0  0  0  0  0  0  0  0  0  0
  -17.2247   28.7169    6.9109 C   0  0  2  0  0  0  0  0  0  0  0  0
  -16.5763   27.4580    7.1545 N   0  0  0  0  0  4  0  0  0  0  0  0
  -15.9415   27.8612   12.4917 N   0  0  0  0  0  0  0  0  0  0  0  0
   -9.7539   29.4823    9.5101 O   0  0  0  0  0  0  0  0  0  0  0  0
  -10.3158   28.3427   11.3718 N   0  0  0  0  0  0  0  0  0  0  0  0
  1  4  2  0
  1  7  1  0
  8  1  1  0
  2  3  2  0
  9  2  1  0
  2 11  1  0
  4  3  1  0
  3  6  1  0
 14  5  1  0
  6 25  3  0
  7 26  2  0
  7 27  1  0
  8  9  2  0
 10  8  1  0
 12 10  1  0
 18 11  1  1
 13 12  2  0
 12 17  1  0
 13 14  1  0
 14 15  2  0
 15 16  1  0
 16 17  2  0
 18 19  1  0
 18 23  1  0
 19 20  1  0
 20 21  1  0
 21 22  1  0
 22 23  1  0
 23 24  1  1
M  CHG  1  24   1
M  END
$$$$
