
     RDKit          3D

 27 29  0  0  0  0  0  0  0  0999 V2000
  -11.6916   29.2520   10.1760 C   0  0  0  0  0  0  0  0  0  0  0  0
  -14.4559   29.1552    9.6237 C   0  0  0  0  0  0  0  0  0  0  0  0
  -13.9988   28.6592   10.8111 C   0  0  0  0  0  0  0  0  0  0  0  0
  -12.6465   28.7193   11.0554 C   0  0  0  0  0  0  0  0  0  0  0  0
  -14.9146   31.8745    5.0527 C   0  0  0  0  0  0  0  0  0  0  0  0
  -14.8689   28.0475   11.8115 C   0  0  0  0  0  0  0  0  0  0  0  0
  -10.3001   29.2194   10.5670 C   0  0  0  0  0  0  0  0  0  0  0  0
  -12.2133   29.7356    8.9970 C   0  0  0  0  0  0  0  0  0  0  0  0
  -13.5357   29.6756    8.7614 N   0  0  0  0  0  0  0  0  0  0  0  0
  -11.3436   30.3243    8.0503 N   0  0  0  0  0  0  0  0  0  0  0  0
  -15.8216   29.1664    9.2759 N   0  0  0  0  0  0  0  0  0  0  0  0
  -11.7101   30.9725    6.8452 C   0  0  0  0  0  0  0  0  0  0  0  0
  -13.0621   31.1172    6.5059 C   0  0  0  0  0  0  0  0  0  0  0  0
  -13.4828   31.7456    5.3598 C   0  0  0  0  0  0  0  0  0  0  0  0
  -12.5534   32.2700    4.4799 C   0  0  0  0  0  0  0  0  0  0  0  0
  -11.2277   32.1361    4.7984 C   0  0  0  0  0  0  0  0  0  0  0  0
  -10.8030   31.4970    5.9645 C   0  0  0  0  0  0  0  0  0  0  0  0
  -16.5295   29.7449    8.1946 C   0  0  2  0  0  0  0  0  0  0  0  0
  -17.8398   30.3179    8.7803 C   0  0  0  0  0  0  0  0  0  0  0  0
  -18.6715   30.9675    7.6967 C   0  0  0  0  0  0  0  0  0  0  0  0
  -18.9524   29.9723    6.5797 C   0  0  0  0  0  0  0  0  0  0  0  0
  -18.4319   28.5958    7.0185 C   0  0  0  0  0  0  0  0  0  0  0  0
  -16.9179   28.7482    7.1255 C   0  0  2  0  0  0  0  0  0  0  0  0
  -16.3476   27.4408    7.2987 N   0  0  0  0  0  4  0  0  0  0  0  0
  -15.5677   27.5679   12.5844 N   0  0  0  0  0  0  0  0  0  0  0  0
   -9.3738   29.7180    9.9201 O   0  0  0  0  0  0  0  0  0  0  0  0
   -9.9374   28.5748   11.7791 N   0  0  0  0  0  0  0  0  0  0  0  0
  1  4  2  0
  1  7  1  0
  8  1  1  0
  2  3  2  0
  9  2  1  0
  2 11  1  0
  4  3  1  0
  3  6  1  0
 14  5  1  0
  6 25  3  0
  7 26  2  0
  7 27  1  0
  8  9  2  0
 10  8  1  0
 12 10  1  0
 18 11  1  1
 13 12  2  0
 12 17  1  0
 13 14  1  0
 14 15  2  0
 15 16  1  0
 16 17  2  0
 18 19  1  0
 18 23  1  0
 19 20  1  0
 20 21  1  0
 21 22  1  0
 22 23  1  0
 23 24  1  1
M  CHG  1  24   1
M  END
$$$$
