
     RDKit          3D

 27 29  0  0  0  0  0  0  0  0999 V2000
  -11.8422   29.2638   10.0660 C   0  0  0  0  0  0  0  0  0  0  0  0
  -14.6149   29.1537    9.5600 C   0  0  0  0  0  0  0  0  0  0  0  0
  -14.1129   28.5007   10.6492 C   0  0  0  0  0  0  0  0  0  0  0  0
  -12.7575   28.5711   10.8731 C   0  0  0  0  0  0  0  0  0  0  0  0
  -15.0514   32.0578    4.9372 C   0  0  0  0  0  0  0  0  0  0  0  0
  -14.9378   27.7146   11.5622 C   0  0  0  0  0  0  0  0  0  0  0  0
  -10.4412   29.2219   10.4200 C   0  0  0  0  0  0  0  0  0  0  0  0
  -12.4083   29.9010    8.9845 C   0  0  0  0  0  0  0  0  0  0  0  0
  -13.7336   29.8305    8.7687 N   0  0  0  0  0  0  0  0  0  0  0  0
  -11.5817   30.6563    8.1211 N   0  0  0  0  0  0  0  0  0  0  0  0
  -15.9885   29.1689    9.2449 N   0  0  0  0  0  0  0  0  0  0  0  0
  -11.9109   31.1322    6.8280 C   0  0  0  0  0  0  0  0  0  0  0  0
  -13.2493   31.3600    6.4806 C   0  0  0  0  0  0  0  0  0  0  0  0
  -13.6328   31.8319    5.2495 C   0  0  0  0  0  0  0  0  0  0  0  0
  -12.6776   32.1040    4.2870 C   0  0  0  0  0  0  0  0  0  0  0  0
  -11.3648   31.8860    4.6123 C   0  0  0  0  0  0  0  0  0  0  0  0
  -10.9778   31.4065    5.8648 C   0  0  0  0  0  0  0  0  0  0  0  0
  -16.7160   29.7161    8.1604 C   0  0  2  0  0  0  0  0  0  0  0  0
  -18.1341   30.0258    8.6909 C   0  0  0  0  0  0  0  0  0  0  0  0
  -18.9950   30.6237    7.6004 C   0  0  0  0  0  0  0  0  0  0  0  0
  -19.0445   29.6923    6.3975 C   0  0  0  0  0  0  0  0  0  0  0  0
  -18.3342   28.3832    6.7719 C   0  0  0  0  0  0  0  0  0  0  0  0
  -16.8740   28.7624    6.9972 C   0  0  2  0  0  0  0  0  0  0  0  0
  -16.1103   27.5511    7.1161 N   0  0  0  0  0  4  0  0  0  0  0  0
  -15.6013   27.0990   12.2668 N   0  0  0  0  0  0  0  0  0  0  0  0
   -9.5302   29.7245    9.7547 O   0  0  0  0  0  0  0  0  0  0  0  0
  -10.0494   28.5623   11.6149 N   0  0  0  0  0  0  0  0  0  0  0  0
  1  4  2  0
  1  7  1  0
  8  1  1  0
  2  3  2  0
  9  2  1  0
  2 11  1  0
  4  3  1  0
  3  6  1  0
 14  5  1  0
  6 25  3  0
  7 26  2  0
  7 27  1  0
  8  9  2  0
 10  8  1  0
 12 10  1  0
 18 11  1  1
 13 12  2  0
 12 17  1  0
 13 14  1  0
 14 15  2  0
 15 16  1  0
 16 17  2  0
 18 19  1  0
 18 23  1  0
 19 20  1  0
 20 21  1  0
 21 22  1  0
 22 23  1  0
 23 24  1  1
M  CHG  1  24   1
M  END
$$$$
