
     RDKit          3D

 27 29  0  0  0  0  0  0  0  0999 V2000
  -11.8569   29.2335   10.2926 C   0  0  0  0  0  0  0  0  0  0  0  0
  -14.6047   29.2326    9.6563 C   0  0  0  0  0  0  0  0  0  0  0  0
  -14.2061   28.7663   10.8763 C   0  0  0  0  0  0  0  0  0  0  0  0
  -12.8605   28.7784   11.1612 C   0  0  0  0  0  0  0  0  0  0  0  0
  -14.7996   32.0190    5.0940 C   0  0  0  0  0  0  0  0  0  0  0  0
  -15.1322   28.2337   11.8717 C   0  0  0  0  0  0  0  0  0  0  0  0
  -10.4806   29.1574   10.7288 C   0  0  0  0  0  0  0  0  0  0  0  0
  -12.3209   29.6905    9.0793 C   0  0  0  0  0  0  0  0  0  0  0  0
  -13.6369   29.6776    8.8041 N   0  0  0  0  0  0  0  0  0  0  0  0
  -11.3979   30.2024    8.1384 N   0  0  0  0  0  0  0  0  0  0  0  0
  -15.9575   29.2880    9.2649 N   0  0  0  0  0  0  0  0  0  0  0  0
  -11.6973   30.9392    6.9662 C   0  0  0  0  0  0  0  0  0  0  0  0
  -13.0294   31.1305    6.5751 C   0  0  0  0  0  0  0  0  0  0  0  0
  -13.3860   31.8444    5.4577 C   0  0  0  0  0  0  0  0  0  0  0  0
  -12.4084   32.4126    4.6613 C   0  0  0  0  0  0  0  0  0  0  0  0
  -11.1015   32.2339    5.0311 C   0  0  0  0  0  0  0  0  0  0  0  0
  -10.7419   31.5079    6.1678 C   0  0  0  0  0  0  0  0  0  0  0  0
  -16.6058   29.8485    8.1378 C   0  0  2  0  0  0  0  0  0  0  0  0
  -17.9767   30.3663    8.6286 C   0  0  0  0  0  0  0  0  0  0  0  0
  -18.7510   30.9933    7.4905 C   0  0  0  0  0  0  0  0  0  0  0  0
  -18.9106   29.9978    6.3500 C   0  0  0  0  0  0  0  0  0  0  0  0
  -18.3711   28.6383    6.8179 C   0  0  0  0  0  0  0  0  0  0  0  0
  -16.8760   28.8471    7.0370 C   0  0  2  0  0  0  0  0  0  0  0  0
  -16.2701   27.5609    7.2442 N   0  0  0  0  0  4  0  0  0  0  0  0
  -15.8721   27.8305   12.6500 N   0  0  0  0  0  0  0  0  0  0  0  0
   -9.5201   29.6387   10.1200 O   0  0  0  0  0  0  0  0  0  0  0  0
  -10.1763   28.4870   11.9430 N   0  0  0  0  0  0  0  0  0  0  0  0
  1  4  2  0
  1  7  1  0
  8  1  1  0
  2  3  2  0
  9  2  1  0
  2 11  1  0
  4  3  1  0
  3  6  1  0
 14  5  1  0
  6 25  3  0
  7 26  2  0
  7 27  1  0
  8  9  2  0
 10  8  1  0
 12 10  1  0
 18 11  1  1
 13 12  2  0
 12 17  1  0
 13 14  1  0
 14 15  2  0
 15 16  1  0
 16 17  2  0
 18 19  1  0
 18 23  1  0
 19 20  1  0
 20 21  1  0
 21 22  1  0
 22 23  1  0
 23 24  1  1
M  CHG  1  24   1
M  END
$$$$
