
     RDKit          3D

 27 29  0  0  0  0  0  0  0  0999 V2000
  -11.7039   29.1992   10.1097 C   0  0  0  0  0  0  0  0  0  0  0  0
  -14.4909   29.1664    9.6771 C   0  0  0  0  0  0  0  0  0  0  0  0
  -13.9816   28.5249   10.7697 C   0  0  0  0  0  0  0  0  0  0  0  0
  -12.6193   28.5569   10.9573 C   0  0  0  0  0  0  0  0  0  0  0  0
  -14.9493   31.7816    4.9080 C   0  0  0  0  0  0  0  0  0  0  0  0
  -14.8069   27.7891   11.7233 C   0  0  0  0  0  0  0  0  0  0  0  0
  -10.2961   29.1208   10.4290 C   0  0  0  0  0  0  0  0  0  0  0  0
  -12.2776   29.8272    9.0267 C   0  0  0  0  0  0  0  0  0  0  0  0
  -13.6096   29.7943    8.8465 N   0  0  0  0  0  0  0  0  0  0  0  0
  -11.4502   30.5334    8.1234 N   0  0  0  0  0  0  0  0  0  0  0  0
  -15.8712   29.2183    9.3967 N   0  0  0  0  0  0  0  0  0  0  0  0
  -11.7899   30.9660    6.8179 C   0  0  0  0  0  0  0  0  0  0  0  0
  -13.1327   31.1602    6.4670 C   0  0  0  0  0  0  0  0  0  0  0  0
  -13.5265   31.5896    5.2236 C   0  0  0  0  0  0  0  0  0  0  0  0
  -12.5778   31.8505    4.2516 C   0  0  0  0  0  0  0  0  0  0  0  0
  -11.2608   31.6651    4.5802 C   0  0  0  0  0  0  0  0  0  0  0  0
  -10.8633   31.2288    5.8452 C   0  0  0  0  0  0  0  0  0  0  0  0
  -16.6044   29.6912    8.2815 C   0  0  2  0  0  0  0  0  0  0  0  0
  -18.0318   29.9975    8.7888 C   0  0  0  0  0  0  0  0  0  0  0  0
  -18.8994   30.5178    7.6644 C   0  0  0  0  0  0  0  0  0  0  0  0
  -18.9223   29.5231    6.5124 C   0  0  0  0  0  0  0  0  0  0  0  0
  -18.1859   28.2516    6.9589 C   0  0  0  0  0  0  0  0  0  0  0  0
  -16.7355   28.6740    7.1700 C   0  0  2  0  0  0  0  0  0  0  0  0
  -15.9464   27.4877    7.3562 N   0  0  0  0  0  4  0  0  0  0  0  0
  -15.4626   27.2000   12.4573 N   0  0  0  0  0  0  0  0  0  0  0  0
   -9.3878   29.5832    9.7317 O   0  0  0  0  0  0  0  0  0  0  0  0
   -9.8938   28.4709   11.6257 N   0  0  0  0  0  0  0  0  0  0  0  0
  1  4  2  0
  1  7  1  0
  8  1  1  0
  2  3  2  0
  9  2  1  0
  2 11  1  0
  4  3  1  0
  3  6  1  0
 14  5  1  0
  6 25  3  0
  7 26  2  0
  7 27  1  0
  8  9  2  0
 10  8  1  0
 12 10  1  0
 18 11  1  1
 13 12  2  0
 12 17  1  0
 13 14  1  0
 14 15  2  0
 15 16  1  0
 16 17  2  0
 18 19  1  0
 18 23  1  0
 19 20  1  0
 20 21  1  0
 21 22  1  0
 22 23  1  0
 23 24  1  1
M  CHG  1  24   1
M  END
$$$$
