
     RDKit          3D

 27 29  0  0  0  0  0  0  0  0999 V2000
  -11.8756   29.3100   10.0469 C   0  0  0  0  0  0  0  0  0  0  0  0
  -14.6523   29.3073    9.5511 C   0  0  0  0  0  0  0  0  0  0  0  0
  -14.1872   28.7845   10.7238 C   0  0  0  0  0  0  0  0  0  0  0  0
  -12.8289   28.7988   10.9406 C   0  0  0  0  0  0  0  0  0  0  0  0
  -10.1683   33.1414    4.0893 C   0  0  0  0  0  0  0  0  0  0  0  0
  -15.0559   28.1904   11.7360 C   0  0  0  0  0  0  0  0  0  0  0  0
  -10.4782   29.2289   10.4085 C   0  0  0  0  0  0  0  0  0  0  0  0
  -12.4055   29.8223    8.8838 C   0  0  0  0  0  0  0  0  0  0  0  0
  -13.7337   29.8071    8.6751 N   0  0  0  0  0  0  0  0  0  0  0  0
  -11.5369   30.3929    7.9250 N   0  0  0  0  0  0  0  0  0  0  0  0
  -16.0238   29.3657    9.2319 N   0  0  0  0  0  0  0  0  0  0  0  0
  -11.9072   31.1009    6.7553 C   0  0  0  0  0  0  0  0  0  0  0  0
  -10.9350   31.7686    5.9982 C   0  0  0  0  0  0  0  0  0  0  0  0
  -11.2270   32.4614    4.8493 C   0  0  0  0  0  0  0  0  0  0  0  0
  -12.5312   32.5215    4.3927 C   0  0  0  0  0  0  0  0  0  0  0  0
  -13.4925   31.8735    5.1226 C   0  0  0  0  0  0  0  0  0  0  0  0
  -13.1927   31.1696    6.2901 C   0  0  0  0  0  0  0  0  0  0  0  0
  -16.7242   29.8598    8.1049 C   0  0  2  0  0  0  0  0  0  0  0  0
  -18.1217   30.2888    8.6063 C   0  0  0  0  0  0  0  0  0  0  0  0
  -18.9526   30.8401    7.4690 C   0  0  0  0  0  0  0  0  0  0  0  0
  -19.0565   29.8163    6.3474 C   0  0  0  0  0  0  0  0  0  0  0  0
  -18.4168   28.5062    6.8299 C   0  0  0  0  0  0  0  0  0  0  0  0
  -16.9374   28.8230    7.0247 C   0  0  2  0  0  0  0  0  0  0  0  0
  -16.2400   27.5862    7.2444 N   0  0  0  0  0  4  0  0  0  0  0  0
  -15.7359   27.7058   12.5224 N   0  0  0  0  0  0  0  0  0  0  0  0
   -9.5478   29.6820    9.7347 O   0  0  0  0  0  0  0  0  0  0  0  0
  -10.1141   28.5877   11.6220 N   0  0  0  0  0  0  0  0  0  0  0  0
  1  4  2  0
  1  7  1  0
  8  1  1  0
  2  3  2  0
  9  2  1  0
  2 11  1  0
  4  3  1  0
  3  6  1  0
 14  5  1  0
  6 25  3  0
  7 26  2  0
  7 27  1  0
  8  9  2  0
 10  8  1  0
 12 10  1  0
 18 11  1  1
 13 12  2  0
 12 17  1  0
 13 14  1  0
 14 15  2  0
 15 16  1  0
 16 17  2  0
 18 19  1  0
 18 23  1  0
 19 20  1  0
 20 21  1  0
 21 22  1  0
 22 23  1  0
 23 24  1  1
M  CHG  1  24   1
M  END
$$$$
