
     RDKit          3D

 27 29  0  0  0  0  0  0  0  0999 V2000
  -11.8828   29.1126   10.2608 C   0  0  0  0  0  0  0  0  0  0  0  0
  -14.6183   28.9786    9.5865 C   0  0  0  0  0  0  0  0  0  0  0  0
  -14.1921   28.3998   10.7476 C   0  0  0  0  0  0  0  0  0  0  0  0
  -12.8532   28.4802   11.0527 C   0  0  0  0  0  0  0  0  0  0  0  0
  -14.9209   31.9916    5.1294 C   0  0  0  0  0  0  0  0  0  0  0  0
  -15.0800   27.6810   11.6571 C   0  0  0  0  0  0  0  0  0  0  0  0
  -10.5075   29.0898   10.7060 C   0  0  0  0  0  0  0  0  0  0  0  0
  -12.3736   29.6765    9.1043 C   0  0  0  0  0  0  0  0  0  0  0  0
  -13.6829   29.5964    8.8092 N   0  0  0  0  0  0  0  0  0  0  0  0
  -11.4875   30.3679    8.2464 N   0  0  0  0  0  0  0  0  0  0  0  0
  -15.9689   28.9775    9.1837 N   0  0  0  0  0  0  0  0  0  0  0  0
  -11.8001   30.9612    6.9986 C   0  0  0  0  0  0  0  0  0  0  0  0
  -13.1360   31.1891    6.6416 C   0  0  0  0  0  0  0  0  0  0  0  0
  -13.5041   31.7709    5.4536 C   0  0  0  0  0  0  0  0  0  0  0  0
  -12.5351   32.1605    4.5470 C   0  0  0  0  0  0  0  0  0  0  0  0
  -11.2246   31.9439    4.8822 C   0  0  0  0  0  0  0  0  0  0  0  0
  -10.8532   31.3525    6.0908 C   0  0  0  0  0  0  0  0  0  0  0  0
  -16.6373   29.5479    8.0734 C   0  0  2  0  0  0  0  0  0  0  0  0
  -18.0177   30.0200    8.5833 C   0  0  0  0  0  0  0  0  0  0  0  0
  -18.8137   30.6539    7.4643 C   0  0  0  0  0  0  0  0  0  0  0  0
  -18.9553   29.6818    6.3016 C   0  0  0  0  0  0  0  0  0  0  0  0
  -18.3798   28.3255    6.7347 C   0  0  0  0  0  0  0  0  0  0  0  0
  -16.8891   28.5661    6.9509 C   0  0  2  0  0  0  0  0  0  0  0  0
  -16.2505   27.2907    7.1247 N   0  0  0  0  0  4  0  0  0  0  0  0
  -15.7727   27.1294   12.3861 N   0  0  0  0  0  0  0  0  0  0  0  0
   -9.5594   29.5905   10.0933 O   0  0  0  0  0  0  0  0  0  0  0  0
  -10.1890   28.4528   11.9344 N   0  0  0  0  0  0  0  0  0  0  0  0
  1  4  2  0
  1  7  1  0
  8  1  1  0
  2  3  2  0
  9  2  1  0
  2 11  1  0
  4  3  1  0
  3  6  1  0
 14  5  1  0
  6 25  3  0
  7 26  2  0
  7 27  1  0
  8  9  2  0
 10  8  1  0
 12 10  1  0
 18 11  1  1
 13 12  2  0
 12 17  1  0
 13 14  1  0
 14 15  2  0
 15 16  1  0
 16 17  2  0
 18 19  1  0
 18 23  1  0
 19 20  1  0
 20 21  1  0
 21 22  1  0
 22 23  1  0
 23 24  1  1
M  CHG  1  24   1
M  END
$$$$
