
     RDKit          3D

 27 29  0  0  0  0  0  0  0  0999 V2000
  -11.8999   29.0479    9.8915 C   0  0  0  0  0  0  0  0  0  0  0  0
  -14.6773   28.9605    9.4077 C   0  0  0  0  0  0  0  0  0  0  0  0
  -14.1819   28.3741   10.5371 C   0  0  0  0  0  0  0  0  0  0  0  0
  -12.8240   28.4318   10.7490 C   0  0  0  0  0  0  0  0  0  0  0  0
  -10.3569   32.9587    3.9227 C   0  0  0  0  0  0  0  0  0  0  0  0
  -15.0169   27.6703   11.5063 C   0  0  0  0  0  0  0  0  0  0  0  0
  -10.4978   29.0016   10.2408 C   0  0  0  0  0  0  0  0  0  0  0  0
  -12.4596   29.6203    8.7712 C   0  0  0  0  0  0  0  0  0  0  0  0
  -13.7874   29.5625    8.5671 N   0  0  0  0  0  0  0  0  0  0  0  0
  -11.6232   30.2968    7.8535 N   0  0  0  0  0  0  0  0  0  0  0  0
  -16.0523   28.9823    9.0990 N   0  0  0  0  0  0  0  0  0  0  0  0
  -12.0283   31.0117    6.6996 C   0  0  0  0  0  0  0  0  0  0  0  0
  -11.0728   31.6326    5.8837 C   0  0  0  0  0  0  0  0  0  0  0  0
  -11.3992   32.3291    4.7463 C   0  0  0  0  0  0  0  0  0  0  0  0
  -12.7230   32.4409    4.3621 C   0  0  0  0  0  0  0  0  0  0  0  0
  -13.6685   31.8391    5.1500 C   0  0  0  0  0  0  0  0  0  0  0  0
  -13.3337   31.1313    6.3056 C   0  0  0  0  0  0  0  0  0  0  0  0
  -16.7798   29.5126    8.0061 C   0  0  2  0  0  0  0  0  0  0  0  0
  -18.1846   29.8698    8.5420 C   0  0  0  0  0  0  0  0  0  0  0  0
  -19.0444   30.4536    7.4431 C   0  0  0  0  0  0  0  0  0  0  0  0
  -19.1281   29.4876    6.2697 C   0  0  0  0  0  0  0  0  0  0  0  0
  -18.4427   28.1750    6.6763 C   0  0  0  0  0  0  0  0  0  0  0  0
  -16.9719   28.5280    6.8743 C   0  0  2  0  0  0  0  0  0  0  0  0
  -16.2338   27.3040    7.0218 N   0  0  0  0  0  4  0  0  0  0  0  0
  -15.6890   27.1214   12.2564 N   0  0  0  0  0  0  0  0  0  0  0  0
   -9.5869   29.4963    9.5695 O   0  0  0  0  0  0  0  0  0  0  0  0
  -10.1048   28.3469   11.4379 N   0  0  0  0  0  0  0  0  0  0  0  0
  1  4  2  0
  1  7  1  0
  8  1  1  0
  2  3  2  0
  9  2  1  0
  2 11  1  0
  4  3  1  0
  3  6  1  0
 14  5  1  0
  6 25  3  0
  7 26  2  0
  7 27  1  0
  8  9  2  0
 10  8  1  0
 12 10  1  0
 18 11  1  1
 13 12  2  0
 12 17  1  0
 13 14  1  0
 14 15  2  0
 15 16  1  0
 16 17  2  0
 18 19  1  0
 18 23  1  0
 19 20  1  0
 20 21  1  0
 21 22  1  0
 22 23  1  0
 23 24  1  1
M  CHG  1  24   1
M  END
$$$$
