
     RDKit          3D

 27 29  0  0  0  0  0  0  0  0999 V2000
  -11.9689   29.1261   10.0216 C   0  0  0  0  0  0  0  0  0  0  0  0
  -14.7235   29.0237    9.4236 C   0  0  0  0  0  0  0  0  0  0  0  0
  -14.2696   28.4259   10.5644 C   0  0  0  0  0  0  0  0  0  0  0  0
  -12.9220   28.4912   10.8324 C   0  0  0  0  0  0  0  0  0  0  0  0
  -15.1039   31.8413    4.8609 C   0  0  0  0  0  0  0  0  0  0  0  0
  -15.1375   27.7024   11.4892 C   0  0  0  0  0  0  0  0  0  0  0  0
  -10.5819   29.0860   10.4273 C   0  0  0  0  0  0  0  0  0  0  0  0
  -12.4873   29.7094    8.8871 C   0  0  0  0  0  0  0  0  0  0  0  0
  -13.8051   29.6441    8.6282 N   0  0  0  0  0  0  0  0  0  0  0  0
  -11.6199   30.4049    8.0135 N   0  0  0  0  0  0  0  0  0  0  0  0
  -16.0849   29.0390    9.0593 N   0  0  0  0  0  0  0  0  0  0  0  0
  -11.9513   30.9730    6.7588 C   0  0  0  0  0  0  0  0  0  0  0  0
  -13.2939   31.1353    6.3913 C   0  0  0  0  0  0  0  0  0  0  0  0
  -13.6807   31.6898    5.1962 C   0  0  0  0  0  0  0  0  0  0  0  0
  -12.7247   32.1172    4.2927 C   0  0  0  0  0  0  0  0  0  0  0  0
  -11.4078   31.9650    4.6383 C   0  0  0  0  0  0  0  0  0  0  0  0
  -11.0175   31.4012    5.8542 C   0  0  0  0  0  0  0  0  0  0  0  0
  -16.7703   29.5689    7.9394 C   0  0  2  0  0  0  0  0  0  0  0  0
  -18.1598   30.0193    8.4442 C   0  0  0  0  0  0  0  0  0  0  0  0
  -18.9744   30.6095    7.3146 C   0  0  0  0  0  0  0  0  0  0  0  0
  -19.0968   29.6089    6.1741 C   0  0  0  0  0  0  0  0  0  0  0  0
  -18.4878   28.2764    6.6345 C   0  0  0  0  0  0  0  0  0  0  0  0
  -17.0025   28.5569    6.8396 C   0  0  2  0  0  0  0  0  0  0  0  0
  -16.3332   27.3012    7.0388 N   0  0  0  0  0  4  0  0  0  0  0  0
  -15.8111   27.1441   12.2310 N   0  0  0  0  0  0  0  0  0  0  0  0
   -9.6320   29.4551    9.7298 O   0  0  0  0  0  0  0  0  0  0  0  0
  -10.2528   28.5916   11.7170 N   0  0  0  0  0  0  0  0  0  0  0  0
  1  4  2  0
  1  7  1  0
  8  1  1  0
  2  3  2  0
  9  2  1  0
  2 11  1  0
  4  3  1  0
  3  6  1  0
 14  5  1  0
  6 25  3  0
  7 26  2  0
  7 27  1  0
  8  9  2  0
 10  8  1  0
 12 10  1  0
 18 11  1  1
 13 12  2  0
 12 17  1  0
 13 14  1  0
 14 15  2  0
 15 16  1  0
 16 17  2  0
 18 19  1  0
 18 23  1  0
 19 20  1  0
 20 21  1  0
 21 22  1  0
 22 23  1  0
 23 24  1  1
M  CHG  1  24   1
M  END
$$$$
