
     RDKit          3D

 27 29  0  0  0  0  0  0  0  0999 V2000
  -11.9745   29.2401   10.1201 C   0  0  0  0  0  0  0  0  0  0  0  0
  -14.7394   29.2827    9.5640 C   0  0  0  0  0  0  0  0  0  0  0  0
  -14.3124   28.8016   10.7686 C   0  0  0  0  0  0  0  0  0  0  0  0
  -12.9590   28.7926   11.0143 C   0  0  0  0  0  0  0  0  0  0  0  0
  -14.9475   31.6877    4.7145 C   0  0  0  0  0  0  0  0  0  0  0  0
  -15.2167   28.2745   11.7866 C   0  0  0  0  0  0  0  0  0  0  0  0
  -10.5875   29.1413   10.5156 C   0  0  0  0  0  0  0  0  0  0  0  0
  -12.4670   29.7128    8.9242 C   0  0  0  0  0  0  0  0  0  0  0  0
  -13.7904   29.7205    8.6873 N   0  0  0  0  0  0  0  0  0  0  0  0
  -11.5644   30.2188    7.9606 N   0  0  0  0  0  0  0  0  0  0  0  0
  -16.1021   29.3602    9.2125 N   0  0  0  0  0  0  0  0  0  0  0  0
  -11.8841   30.9948    6.8194 C   0  0  0  0  0  0  0  0  0  0  0  0
  -13.1879   30.9882    6.3054 C   0  0  0  0  0  0  0  0  0  0  0  0
  -13.5644   31.7271    5.2111 C   0  0  0  0  0  0  0  0  0  0  0  0
  -12.6371   32.5239    4.5646 C   0  0  0  0  0  0  0  0  0  0  0  0
  -11.3582   32.5404    5.0558 C   0  0  0  0  0  0  0  0  0  0  0  0
  -10.9783   31.7885    6.1688 C   0  0  0  0  0  0  0  0  0  0  0  0
  -16.7679   29.8509    8.0633 C   0  0  2  0  0  0  0  0  0  0  0  0
  -18.1081   30.4472    8.5499 C   0  0  0  0  0  0  0  0  0  0  0  0
  -18.8982   31.0072    7.3880 C   0  0  0  0  0  0  0  0  0  0  0  0
  -19.1205   29.9314    6.3343 C   0  0  0  0  0  0  0  0  0  0  0  0
  -18.6060   28.5965    6.8924 C   0  0  0  0  0  0  0  0  0  0  0  0
  -17.0996   28.7757    7.0527 C   0  0  2  0  0  0  0  0  0  0  0  0
  -16.5245   27.4914    7.3434 N   0  0  0  0  0  4  0  0  0  0  0  0
  -15.9322   27.8792   12.5912 N   0  0  0  0  0  0  0  0  0  0  0  0
   -9.6388   29.6202    9.8865 O   0  0  0  0  0  0  0  0  0  0  0  0
  -10.2569   28.4496   11.7108 N   0  0  0  0  0  0  0  0  0  0  0  0
  1  4  2  0
  1  7  1  0
  8  1  1  0
  2  3  2  0
  9  2  1  0
  2 11  1  0
  4  3  1  0
  3  6  1  0
 14  5  1  0
  6 25  3  0
  7 26  2  0
  7 27  1  0
  8  9  2  0
 10  8  1  0
 12 10  1  0
 18 11  1  1
 13 12  2  0
 12 17  1  0
 13 14  1  0
 14 15  2  0
 15 16  1  0
 16 17  2  0
 18 19  1  0
 18 23  1  0
 19 20  1  0
 20 21  1  0
 21 22  1  0
 22 23  1  0
 23 24  1  1
M  CHG  1  24   1
M  END
$$$$
