
     RDKit          3D

 27 29  0  0  0  0  0  0  0  0999 V2000
  -11.8739   29.2511   10.0015 C   0  0  0  0  0  0  0  0  0  0  0  0
  -14.6495   29.1490    9.5102 C   0  0  0  0  0  0  0  0  0  0  0  0
  -14.1771   28.7598   10.7309 C   0  0  0  0  0  0  0  0  0  0  0  0
  -12.8195   28.8200   10.9443 C   0  0  0  0  0  0  0  0  0  0  0  0
  -15.0376   32.0543    4.9122 C   0  0  0  0  0  0  0  0  0  0  0  0
  -15.0367   28.2600   11.8001 C   0  0  0  0  0  0  0  0  0  0  0  0
  -10.4758   29.2323   10.3689 C   0  0  0  0  0  0  0  0  0  0  0  0
  -12.4111   29.6299    8.7915 C   0  0  0  0  0  0  0  0  0  0  0  0
  -13.7385   29.5701    8.5863 N   0  0  0  0  0  0  0  0  0  0  0  0
  -11.5511   30.1119    7.7778 N   0  0  0  0  0  0  0  0  0  0  0  0
  -16.0215   29.1503    9.1874 N   0  0  0  0  0  0  0  0  0  0  0  0
  -11.8916   30.9881    6.7180 C   0  0  0  0  0  0  0  0  0  0  0  0
  -13.2263   31.1151    6.3100 C   0  0  0  0  0  0  0  0  0  0  0  0
  -13.6228   31.9552    5.2988 C   0  0  0  0  0  0  0  0  0  0  0  0
  -12.6853   32.7241    4.6335 C   0  0  0  0  0  0  0  0  0  0  0  0
  -11.3763   32.6104    5.0215 C   0  0  0  0  0  0  0  0  0  0  0  0
  -10.9761   31.7557    6.0500 C   0  0  0  0  0  0  0  0  0  0  0  0
  -16.7507   29.7072    8.1091 C   0  0  2  0  0  0  0  0  0  0  0  0
  -18.1028   30.1816    8.6882 C   0  0  0  0  0  0  0  0  0  0  0  0
  -18.9601   30.8017    7.6074 C   0  0  0  0  0  0  0  0  0  0  0  0
  -19.1618   29.8168    6.4644 C   0  0  0  0  0  0  0  0  0  0  0  0
  -18.5597   28.4665    6.8799 C   0  0  0  0  0  0  0  0  0  0  0  0
  -17.0602   28.7129    7.0124 C   0  0  2  0  0  0  0  0  0  0  0  0
  -16.4094   27.4409    7.1647 N   0  0  0  0  0  4  0  0  0  0  0  0
  -15.7281   27.8729   12.6295 N   0  0  0  0  0  0  0  0  0  0  0  0
   -9.5667   29.7485    9.7114 O   0  0  0  0  0  0  0  0  0  0  0  0
  -10.0849   28.5808   11.5684 N   0  0  0  0  0  0  0  0  0  0  0  0
  1  4  2  0
  1  7  1  0
  8  1  1  0
  2  3  2  0
  9  2  1  0
  2 11  1  0
  4  3  1  0
  3  6  1  0
 14  5  1  0
  6 25  3  0
  7 26  2  0
  7 27  1  0
  8  9  2  0
 10  8  1  0
 12 10  1  0
 18 11  1  1
 13 12  2  0
 12 17  1  0
 13 14  1  0
 14 15  2  0
 15 16  1  0
 16 17  2  0
 18 19  1  0
 18 23  1  0
 19 20  1  0
 20 21  1  0
 21 22  1  0
 22 23  1  0
 23 24  1  1
M  CHG  1  24   1
M  END
$$$$
