
     RDKit          3D

 27 29  0  0  0  0  0  0  0  0999 V2000
  -11.9766   29.2548    9.8100 C   0  0  0  0  0  0  0  0  0  0  0  0
  -14.7687   29.2265    9.4115 C   0  0  0  0  0  0  0  0  0  0  0  0
  -14.2399   28.5177   10.4521 C   0  0  0  0  0  0  0  0  0  0  0  0
  -12.8755   28.5491   10.6241 C   0  0  0  0  0  0  0  0  0  0  0  0
  -15.2179   31.9115    4.6336 C   0  0  0  0  0  0  0  0  0  0  0  0
  -15.0466   27.7124   11.3645 C   0  0  0  0  0  0  0  0  0  0  0  0
  -10.5641   29.1677   10.1055 C   0  0  0  0  0  0  0  0  0  0  0  0
  -12.5695   29.9489    8.7790 C   0  0  0  0  0  0  0  0  0  0  0  0
  -13.9034   29.9164    8.6138 N   0  0  0  0  0  0  0  0  0  0  0  0
  -11.7598   30.7214    7.9147 N   0  0  0  0  0  0  0  0  0  0  0  0
  -16.1529   29.2848    9.1527 N   0  0  0  0  0  0  0  0  0  0  0  0
  -12.0819   31.1502    6.6036 C   0  0  0  0  0  0  0  0  0  0  0  0
  -13.4209   31.3205    6.2268 C   0  0  0  0  0  0  0  0  0  0  0  0
  -13.7982   31.7450    4.9767 C   0  0  0  0  0  0  0  0  0  0  0  0
  -12.8357   32.0252    4.0238 C   0  0  0  0  0  0  0  0  0  0  0  0
  -11.5222   31.8633    4.3778 C   0  0  0  0  0  0  0  0  0  0  0  0
  -11.1415   31.4319    5.6496 C   0  0  0  0  0  0  0  0  0  0  0  0
  -16.9043   29.8198    8.0784 C   0  0  2  0  0  0  0  0  0  0  0  0
  -18.3284   30.0775    8.6203 C   0  0  0  0  0  0  0  0  0  0  0  0
  -19.2148   30.6589    7.5414 C   0  0  0  0  0  0  0  0  0  0  0  0
  -19.2414   29.7395    6.3286 C   0  0  0  0  0  0  0  0  0  0  0  0
  -18.4868   28.4502    6.6846 C   0  0  0  0  0  0  0  0  0  0  0  0
  -17.0383   28.8741    6.9057 C   0  0  2  0  0  0  0  0  0  0  0  0
  -16.2350   27.6870    7.0069 N   0  0  0  0  0  4  0  0  0  0  0  0
  -15.6920   27.0742   12.0659 N   0  0  0  0  0  0  0  0  0  0  0  0
   -9.6640   29.6095    9.3846 O   0  0  0  0  0  0  0  0  0  0  0  0
  -10.1467   28.5337   11.3055 N   0  0  0  0  0  0  0  0  0  0  0  0
  1  4  2  0
  1  7  1  0
  8  1  1  0
  2  3  2  0
  9  2  1  0
  2 11  1  0
  4  3  1  0
  3  6  1  0
 14  5  1  0
  6 25  3  0
  7 26  2  0
  7 27  1  0
  8  9  2  0
 10  8  1  0
 12 10  1  0
 18 11  1  1
 13 12  2  0
 12 17  1  0
 13 14  1  0
 14 15  2  0
 15 16  1  0
 16 17  2  0
 18 19  1  0
 18 23  1  0
 19 20  1  0
 20 21  1  0
 21 22  1  0
 22 23  1  0
 23 24  1  1
M  CHG  1  24   1
M  END
$$$$
