
     RDKit          3D

 27 29  0  0  0  0  0  0  0  0999 V2000
  -11.6208   29.5581    9.4602 C   0  0  0  0  0  0  0  0  0  0  0  0
  -14.3968   29.0820    9.6132 C   0  0  0  0  0  0  0  0  0  0  0  0
  -13.5824   28.5770   10.5862 C   0  0  0  0  0  0  0  0  0  0  0  0
  -12.2329   28.8243   10.4878 C   0  0  0  0  0  0  0  0  0  0  0  0
  -11.8465   32.6460    2.8857 C   0  0  0  0  0  0  0  0  0  0  0  0
  -14.0712   27.7694   11.7001 C   0  0  0  0  0  0  0  0  0  0  0  0
  -10.1833   29.7095    9.4829 C   0  0  0  0  0  0  0  0  0  0  0  0
  -12.4932   30.0405    8.5103 C   0  0  0  0  0  0  0  0  0  0  0  0
  -13.8119   29.7972    8.6096 N   0  0  0  0  0  0  0  0  0  0  0  0
  -11.9877   30.8215    7.4455 N   0  0  0  0  0  0  0  0  0  0  0  0
  -15.7956   28.9104    9.6233 N   0  0  0  0  0  0  0  0  0  0  0  0
  -12.6953   31.2566    6.2981 C   0  0  0  0  0  0  0  0  0  0  0  0
  -11.9989   31.7337    5.1795 C   0  0  0  0  0  0  0  0  0  0  0  0
  -12.6248   32.1580    4.0334 C   0  0  0  0  0  0  0  0  0  0  0  0
  -14.0049   32.1252    3.9487 C   0  0  0  0  0  0  0  0  0  0  0  0
  -14.6993   31.6611    5.0346 C   0  0  0  0  0  0  0  0  0  0  0  0
  -14.0603   31.2301    6.1984 C   0  0  0  0  0  0  0  0  0  0  0  0
  -16.8172   29.3234    8.7341 C   0  0  2  0  0  0  0  0  0  0  0  0
  -18.1156   29.4193    9.5668 C   0  0  0  0  0  0  0  0  0  0  0  0
  -19.2749   29.8618    8.7019 C   0  0  0  0  0  0  0  0  0  0  0  0
  -19.4426   28.9164    7.5208 C   0  0  0  0  0  0  0  0  0  0  0  0
  -18.4759   27.7376    7.7060 C   0  0  0  0  0  0  0  0  0  0  0  0
  -17.0773   28.3398    7.6151 C   0  0  2  0  0  0  0  0  0  0  0  0
  -16.1299   27.2621    7.5412 N   0  0  0  0  0  4  0  0  0  0  0  0
  -14.4708   27.1475   12.5772 N   0  0  0  0  0  0  0  0  0  0  0  0
   -9.4529   29.3690   10.4187 O   0  0  0  0  0  0  0  0  0  0  0  0
   -9.5312   30.2886    8.3624 N   0  0  0  0  0  0  0  0  0  0  0  0
  1  4  2  0
  1  7  1  0
  8  1  1  0
  2  3  2  0
  9  2  1  0
  2 11  1  0
  4  3  1  0
  3  6  1  0
 14  5  1  0
  6 25  3  0
  7 26  2  0
  7 27  1  0
  8  9  2  0
 10  8  1  0
 12 10  1  0
 18 11  1  1
 13 12  2  0
 12 17  1  0
 13 14  1  0
 14 15  2  0
 15 16  1  0
 16 17  2  0
 18 19  1  0
 18 23  1  0
 19 20  1  0
 20 21  1  0
 21 22  1  0
 22 23  1  0
 23 24  1  1
M  CHG  1  24   1
M  END
$$$$
