
     RDKit          3D

 27 29  0  0  0  0  0  0  0  0999 V2000
  -11.8505   29.0621    9.9375 C   0  0  0  0  0  0  0  0  0  0  0  0
  -14.6173   28.9703    9.3971 C   0  0  0  0  0  0  0  0  0  0  0  0
  -14.1507   28.4325   10.5624 C   0  0  0  0  0  0  0  0  0  0  0  0
  -12.7974   28.4911   10.8013 C   0  0  0  0  0  0  0  0  0  0  0  0
  -15.0978   31.6712    4.8143 C   0  0  0  0  0  0  0  0  0  0  0  0
  -15.0116   27.7784   11.5437 C   0  0  0  0  0  0  0  0  0  0  0  0
  -10.4566   29.0228   10.3192 C   0  0  0  0  0  0  0  0  0  0  0  0
  -12.3817   29.5868    8.7805 C   0  0  0  0  0  0  0  0  0  0  0  0
  -13.7050   29.5282    8.5501 N   0  0  0  0  0  0  0  0  0  0  0  0
  -11.5207   30.2160    7.8519 N   0  0  0  0  0  0  0  0  0  0  0  0
  -15.9851   28.9868    9.0576 N   0  0  0  0  0  0  0  0  0  0  0  0
  -11.8898   30.8331    6.6314 C   0  0  0  0  0  0  0  0  0  0  0  0
  -13.2423   30.9608    6.2871 C   0  0  0  0  0  0  0  0  0  0  0  0
  -13.6655   31.5592    5.1260 C   0  0  0  0  0  0  0  0  0  0  0  0
  -12.7385   32.0688    4.2352 C   0  0  0  0  0  0  0  0  0  0  0  0
  -11.4123   31.9512    4.5583 C   0  0  0  0  0  0  0  0  0  0  0  0
  -10.9850   31.3427    5.7396 C   0  0  0  0  0  0  0  0  0  0  0  0
  -16.6902   29.5163    7.9498 C   0  0  2  0  0  0  0  0  0  0  0  0
  -18.0824   29.9371    8.4722 C   0  0  0  0  0  0  0  0  0  0  0  0
  -18.9178   30.5248    7.3566 C   0  0  0  0  0  0  0  0  0  0  0  0
  -19.0336   29.5341    6.2067 C   0  0  0  0  0  0  0  0  0  0  0  0
  -18.3973   28.2077    6.6473 C   0  0  0  0  0  0  0  0  0  0  0  0
  -16.9152   28.5119    6.8416 C   0  0  2  0  0  0  0  0  0  0  0  0
  -16.2224   27.2660    7.0213 N   0  0  0  0  0  4  0  0  0  0  0  0
  -15.7018   27.2786   12.3116 N   0  0  0  0  0  0  0  0  0  0  0  0
   -9.5330   29.5227    9.6695 O   0  0  0  0  0  0  0  0  0  0  0  0
  -10.0881   28.3693   11.5247 N   0  0  0  0  0  0  0  0  0  0  0  0
  1  4  2  0
  1  7  1  0
  8  1  1  0
  2  3  2  0
  9  2  1  0
  2 11  1  0
  4  3  1  0
  3  6  1  0
 14  5  1  0
  6 25  3  0
  7 26  2  0
  7 27  1  0
  8  9  2  0
 10  8  1  0
 12 10  1  0
 18 11  1  1
 13 12  2  0
 12 17  1  0
 13 14  1  0
 14 15  2  0
 15 16  1  0
 16 17  2  0
 18 19  1  0
 18 23  1  0
 19 20  1  0
 20 21  1  0
 21 22  1  0
 22 23  1  0
 23 24  1  1
M  CHG  1  24   1
M  END
$$$$
