
     RDKit          3D

 27 29  0  0  0  0  0  0  0  0999 V2000
  -13.9213   28.6672   11.6006 C   0  0  0  0  0  0  0  0  0  0  0  0
  -12.5428   29.7454    9.3886 C   0  0  0  0  0  0  0  0  0  0  0  0
  -11.8267   29.1887   10.4094 C   0  0  0  0  0  0  0  0  0  0  0  0
  -12.5237   28.6697   11.4757 C   0  0  0  0  0  0  0  0  0  0  0  0
  -16.4695   31.5895    6.2441 C   0  0  0  0  0  0  0  0  0  0  0  0
  -10.3674   29.1457   10.4336 C   0  0  0  0  0  0  0  0  0  0  0  0
  -14.5056   28.1054   12.7977 C   0  0  0  0  0  0  0  0  0  0  0  0
  -14.5866   29.2419   10.5408 C   0  0  0  0  0  0  0  0  0  0  0  0
  -13.9024   29.7480    9.4999 N   0  0  0  0  0  0  0  0  0  0  0  0
  -16.0004   29.2650   10.5472 N   0  0  0  0  0  0  0  0  0  0  0  0
  -11.9365   30.2871    8.2373 N   0  0  0  0  0  0  0  0  0  0  0  0
  -16.8492   29.7191    9.5079 C   0  0  0  0  0  0  0  0  0  0  0  0
  -16.3146   30.4139    8.4145 C   0  0  0  0  0  0  0  0  0  0  0  0
  -17.0811   30.8690    7.3701 C   0  0  0  0  0  0  0  0  0  0  0  0
  -18.4462   30.6472    7.3685 C   0  0  0  0  0  0  0  0  0  0  0  0
  -18.9831   29.9692    8.4310 C   0  0  0  0  0  0  0  0  0  0  0  0
  -18.2014   29.5073    9.4913 C   0  0  0  0  0  0  0  0  0  0  0  0
  -12.4657   30.8840    7.0675 C   0  0  2  0  0  0  0  0  0  0  0  0
  -11.7843   30.1865    5.8685 C   0  0  0  0  0  0  0  0  0  0  0  0
  -12.2899   30.7542    4.5608 C   0  0  0  0  0  0  0  0  0  0  0  0
  -12.0741   32.2605    4.5215 C   0  0  0  0  0  0  0  0  0  0  0  0
  -11.2620   32.6636    5.7610 C   0  0  0  0  0  0  0  0  0  0  0  0
  -12.1631   32.3615    6.9541 C   0  0  2  0  0  0  0  0  0  0  0  0
  -11.5613   32.9348    8.1261 N   0  0  0  0  0  4  0  0  0  0  0  0
   -9.2218   29.0919   10.4537 N   0  0  0  0  0  0  0  0  0  0  0  0
  -15.7117   28.1100   13.0629 O   0  0  0  0  0  0  0  0  0  0  0  0
  -13.6583   27.4956   13.7601 N   0  0  0  0  0  0  0  0  0  0  0  0
  1  4  2  0
  1  7  1  0
  8  1  1  0
  2  3  2  0
  9  2  1  0
  2 11  1  0
  4  3  1  0
  3  6  1  0
 14  5  1  0
  6 25  3  0
  7 26  2  0
  7 27  1  0
  8  9  2  0
 10  8  1  0
 12 10  1  0
 18 11  1  1
 13 12  2  0
 12 17  1  0
 13 14  1  0
 14 15  2  0
 15 16  1  0
 16 17  2  0
 18 19  1  0
 18 23  1  0
 19 20  1  0
 20 21  1  0
 21 22  1  0
 22 23  1  0
 23 24  1  1
M  CHG  1  24   1
M  END
$$$$
