
     RDKit          3D

 11 12  0  0  0  0  0  0  0  0999 V2000
  -16.9064   -6.1949  -25.2067 C   0  0  0  0  0  0  0  0  0  0  0  0
  -17.6204   -5.0452  -25.5528 C   0  0  0  0  0  0  0  0  0  0  0  0
  -15.4576   -5.8135  -27.0643 C   0  0  0  0  0  0  0  0  0  0  0  0
  -17.5337   -2.2074  -28.0118 C   0  0  0  0  0  0  0  0  0  0  0  0
  -16.1285   -2.4638  -28.4595 C   0  0  0  0  0  0  0  0  0  0  0  0
  -18.0430   -3.0987  -26.9513 C   0  0  0  0  0  0  0  0  0  0  0  0
  -15.7502   -3.8909  -28.5748 C   0  0  0  0  0  0  0  0  0  0  0  0
  -15.8203   -6.5902  -25.9569 C   0  0  0  0  0  0  0  0  0  0  0  0
  -17.2422   -4.2810  -26.6644 C   0  0  0  0  0  0  0  0  0  0  0  0
  -16.1656   -4.6838  -27.3977 C   0  0  0  0  0  0  0  0  0  0  0  0
  -15.1390   -7.7355  -25.5812 O   0  0  0  0  0  0  0  0  0  0  0  0
  2  1  2  0
  1  8  1  0
  9  2  1  0
  8  3  2  0
  3 10  1  0
  4  5  1  0
  6  4  1  0
  5  7  1  0
  6  9  1  0
  7 10  1  0
  8 11  1  0
  9 10  2  0
M  END
$$$$
