
     RDKit          3D

 11 12  0  0  0  0  0  0  0  0999 V2000
  -15.2465   -6.1792  -26.6937 C   0  0  0  0  0  0  0  0  0  0  0  0
  -15.1357   -5.1037  -27.5784 C   0  0  0  0  0  0  0  0  0  0  0  0
  -17.1841   -5.1571  -25.7470 C   0  0  0  0  0  0  0  0  0  0  0  0
  -16.9434   -1.9633  -28.5671 C   0  0  0  0  0  0  0  0  0  0  0  0
  -18.2174   -2.3181  -27.8659 C   0  0  0  0  0  0  0  0  0  0  0  0
  -15.8689   -2.9728  -28.4976 C   0  0  0  0  0  0  0  0  0  0  0  0
  -18.0544   -3.0030  -26.5631 C   0  0  0  0  0  0  0  0  0  0  0  0
  -16.2692   -6.2172  -25.7711 C   0  0  0  0  0  0  0  0  0  0  0  0
  -16.0608   -4.0524  -27.5389 C   0  0  0  0  0  0  0  0  0  0  0  0
  -17.0677   -4.1029  -26.6209 C   0  0  0  0  0  0  0  0  0  0  0  0
  -16.3446   -7.3003  -24.9119 O   0  0  0  0  0  0  0  0  0  0  0  0
  2  1  2  0
  1  8  1  0
  9  2  1  0
  8  3  2  0
  3 10  1  0
  4  5  1  0
  6  4  1  0
  5  7  1  0
  6  9  1  0
  7 10  1  0
  8 11  1  0
  9 10  2  0
M  END
$$$$
