
     RDKit          3D

 11 12  0  0  0  0  0  0  0  0999 V2000
  -15.1657   -6.1960  -26.7017 C   0  0  0  0  0  0  0  0  0  0  0  0
  -15.1345   -5.0493  -27.4989 C   0  0  0  0  0  0  0  0  0  0  0  0
  -17.2007   -5.4211  -25.7255 C   0  0  0  0  0  0  0  0  0  0  0  0
  -17.1929   -2.0081  -28.2874 C   0  0  0  0  0  0  0  0  0  0  0  0
  -18.4425   -2.5246  -27.6454 C   0  0  0  0  0  0  0  0  0  0  0  0
  -16.0356   -2.9239  -28.2699 C   0  0  0  0  0  0  0  0  0  0  0  0
  -18.2422   -3.2925  -26.3951 C   0  0  0  0  0  0  0  0  0  0  0  0
  -16.1965   -6.3935  -25.8090 C   0  0  0  0  0  0  0  0  0  0  0  0
  -16.1484   -4.0876  -27.4011 C   0  0  0  0  0  0  0  0  0  0  0  0
  -17.1623   -4.2958  -26.5135 C   0  0  0  0  0  0  0  0  0  0  0  0
  -16.1913   -7.5429  -25.0369 O   0  0  0  0  0  0  0  0  0  0  0  0
  2  1  2  0
  1  8  1  0
  9  2  1  0
  8  3  2  0
  3 10  1  0
  4  5  1  0
  6  4  1  0
  5  7  1  0
  6  9  1  0
  7 10  1  0
  8 11  1  0
  9 10  2  0
M  END
$$$$
