
     RDKit          3D

 11 12  0  0  0  0  0  0  0  0999 V2000
  -15.4295   -5.2762  -25.4805 C   0  0  0  0  0  0  0  0  0  0  0  0
  -15.2580   -4.0786  -26.1789 C   0  0  0  0  0  0  0  0  0  0  0  0
  -17.4667   -5.6386  -26.6692 C   0  0  0  0  0  0  0  0  0  0  0  0
  -16.8483   -2.0693  -28.9250 C   0  0  0  0  0  0  0  0  0  0  0  0
  -17.7283   -3.1795  -29.4081 C   0  0  0  0  0  0  0  0  0  0  0  0
  -15.9444   -2.4055  -27.8077 C   0  0  0  0  0  0  0  0  0  0  0  0
  -18.2999   -4.0422  -28.3489 C   0  0  0  0  0  0  0  0  0  0  0  0
  -16.5328   -6.0668  -25.7176 C   0  0  0  0  0  0  0  0  0  0  0  0
  -16.2035   -3.6670  -27.1272 C   0  0  0  0  0  0  0  0  0  0  0  0
  -17.2903   -4.4590  -27.3518 C   0  0  0  0  0  0  0  0  0  0  0  0
  -16.6664   -7.2463  -25.0049 O   0  0  0  0  0  0  0  0  0  0  0  0
  2  1  2  0
  1  8  1  0
  9  2  1  0
  8  3  2  0
  3 10  1  0
  4  5  1  0
  6  4  1  0
  5  7  1  0
  6  9  1  0
  7 10  1  0
  8 11  1  0
  9 10  2  0
M  END
$$$$
