
     RDKit          3D

 11 12  0  0  0  0  0  0  0  0999 V2000
  -16.8686   -2.6301  -27.7789 C   0  0  0  0  0  0  0  0  0  0  0  0
  -17.4534   -3.3319  -26.7220 C   0  0  0  0  0  0  0  0  0  0  0  0
  -15.2190   -4.3449  -27.9604 C   0  0  0  0  0  0  0  0  0  0  0  0
  -17.1121   -6.5699  -24.8496 C   0  0  0  0  0  0  0  0  0  0  0  0
  -16.2105   -7.2109  -25.8579 C   0  0  0  0  0  0  0  0  0  0  0  0
  -17.5836   -5.2111  -25.1810 C   0  0  0  0  0  0  0  0  0  0  0  0
  -15.2110   -6.3109  -26.4776 C   0  0  0  0  0  0  0  0  0  0  0  0
  -15.7482   -3.1279  -28.4076 C   0  0  0  0  0  0  0  0  0  0  0  0
  -16.9094   -4.5480  -26.2887 C   0  0  0  0  0  0  0  0  0  0  0  0
  -15.8006   -5.0288  -26.9199 C   0  0  0  0  0  0  0  0  0  0  0  0
  -15.1984   -2.4025  -29.4510 O   0  0  0  0  0  0  0  0  0  0  0  0
  2  1  2  0
  1  8  1  0
  9  2  1  0
  8  3  2  0
  3 10  1  0
  4  5  1  0
  6  4  1  0
  5  7  1  0
  6  9  1  0
  7 10  1  0
  8 11  1  0
  9 10  2  0
M  END
$$$$
