
     RDKit          3D

 11 12  0  0  0  0  0  0  0  0999 V2000
  -15.3501   -6.0680  -26.0631 C   0  0  0  0  0  0  0  0  0  0  0  0
  -15.0627   -5.0998  -27.0283 C   0  0  0  0  0  0  0  0  0  0  0  0
  -17.6093   -5.3008  -26.0148 C   0  0  0  0  0  0  0  0  0  0  0  0
  -16.7681   -2.4637  -29.0897 C   0  0  0  0  0  0  0  0  0  0  0  0
  -18.1545   -2.9538  -28.8098 C   0  0  0  0  0  0  0  0  0  0  0  0
  -15.6743   -3.2528  -28.4905 C   0  0  0  0  0  0  0  0  0  0  0  0
  -18.3878   -3.4433  -27.4318 C   0  0  0  0  0  0  0  0  0  0  0  0
  -16.6231   -6.1784  -25.5476 C   0  0  0  0  0  0  0  0  0  0  0  0
  -16.0628   -4.2307  -27.4833 C   0  0  0  0  0  0  0  0  0  0  0  0
  -17.3180   -4.3512  -26.9646 C   0  0  0  0  0  0  0  0  0  0  0  0
  -16.8676   -7.1508  -24.5926 O   0  0  0  0  0  0  0  0  0  0  0  0
  2  1  2  0
  1  8  1  0
  9  2  1  0
  8  3  2  0
  3 10  1  0
  4  5  1  0
  6  4  1  0
  5  7  1  0
  6  9  1  0
  7 10  1  0
  8 11  1  0
  9 10  2  0
M  END
$$$$
