
     RDKit          3D

 11 12  0  0  0  0  0  0  0  0999 V2000
  -17.1092   -6.1009  -25.0644 C   0  0  0  0  0  0  0  0  0  0  0  0
  -17.8183   -4.9727  -25.4840 C   0  0  0  0  0  0  0  0  0  0  0  0
  -15.5724   -5.7604  -26.8581 C   0  0  0  0  0  0  0  0  0  0  0  0
  -17.6401   -2.2154  -28.0280 C   0  0  0  0  0  0  0  0  0  0  0  0
  -16.2110   -2.4671  -28.3955 C   0  0  0  0  0  0  0  0  0  0  0  0
  -18.1921   -3.0785  -26.9657 C   0  0  0  0  0  0  0  0  0  0  0  0
  -15.8105   -3.8919  -28.4442 C   0  0  0  0  0  0  0  0  0  0  0  0
  -15.9818   -6.5056  -25.7453 C   0  0  0  0  0  0  0  0  0  0  0  0
  -17.3931   -4.2400  -26.5997 C   0  0  0  0  0  0  0  0  0  0  0  0
  -16.2758   -4.6517  -27.2640 C   0  0  0  0  0  0  0  0  0  0  0  0
  -15.3069   -7.6288  -25.2980 O   0  0  0  0  0  0  0  0  0  0  0  0
  2  1  2  0
  1  8  1  0
  9  2  1  0
  8  3  2  0
  3 10  1  0
  4  5  1  0
  6  4  1  0
  5  7  1  0
  6  9  1  0
  7 10  1  0
  8 11  1  0
  9 10  2  0
M  END
$$$$
