
     RDKit          3D

 11 12  0  0  0  0  0  0  0  0999 V2000
  -17.3308   -5.8879  -25.1894 C   0  0  0  0  0  0  0  0  0  0  0  0
  -18.0271   -4.7848  -25.6896 C   0  0  0  0  0  0  0  0  0  0  0  0
  -15.7507   -5.6517  -26.9621 C   0  0  0  0  0  0  0  0  0  0  0  0
  -17.7818   -2.1774  -28.3818 C   0  0  0  0  0  0  0  0  0  0  0  0
  -16.3449   -2.4509  -28.6998 C   0  0  0  0  0  0  0  0  0  0  0  0
  -18.3610   -2.9780  -27.2855 C   0  0  0  0  0  0  0  0  0  0  0  0
  -15.9465   -3.8766  -28.6576 C   0  0  0  0  0  0  0  0  0  0  0  0
  -16.1883   -6.3318  -25.8188 C   0  0  0  0  0  0  0  0  0  0  0  0
  -17.5736   -4.1174  -26.8347 C   0  0  0  0  0  0  0  0  0  0  0  0
  -16.4417   -4.5674  -27.4474 C   0  0  0  0  0  0  0  0  0  0  0  0
  -15.5269   -7.4282  -25.2921 O   0  0  0  0  0  0  0  0  0  0  0  0
  2  1  2  0
  1  8  1  0
  9  2  1  0
  8  3  2  0
  3 10  1  0
  4  5  1  0
  6  4  1  0
  5  7  1  0
  6  9  1  0
  7 10  1  0
  8 11  1  0
  9 10  2  0
M  END
$$$$
