
     RDKit          3D

 11 12  0  0  0  0  0  0  0  0999 V2000
  -17.2189   -5.8240  -25.2517 C   0  0  0  0  0  0  0  0  0  0  0  0
  -17.8891   -4.7039  -25.7497 C   0  0  0  0  0  0  0  0  0  0  0  0
  -15.7661   -5.7539  -27.1437 C   0  0  0  0  0  0  0  0  0  0  0  0
  -17.7040   -2.2290  -28.5688 C   0  0  0  0  0  0  0  0  0  0  0  0
  -16.3124   -2.5987  -28.9778 C   0  0  0  0  0  0  0  0  0  0  0  0
  -18.2423   -2.9484  -27.3979 C   0  0  0  0  0  0  0  0  0  0  0  0
  -15.9910   -4.0422  -28.8996 C   0  0  0  0  0  0  0  0  0  0  0  0
  -16.1531   -6.3594  -25.9417 C   0  0  0  0  0  0  0  0  0  0  0  0
  -17.4871   -4.1121  -26.9541 C   0  0  0  0  0  0  0  0  0  0  0  0
  -16.4310   -4.6522  -27.6264 C   0  0  0  0  0  0  0  0  0  0  0  0
  -15.5153   -7.4697  -25.4150 O   0  0  0  0  0  0  0  0  0  0  0  0
  2  1  2  0
  1  8  1  0
  9  2  1  0
  8  3  2  0
  3 10  1  0
  4  5  1  0
  6  4  1  0
  5  7  1  0
  6  9  1  0
  7 10  1  0
  8 11  1  0
  9 10  2  0
M  END
$$$$
