
     RDKit          3D

 11 12  0  0  0  0  0  0  0  0999 V2000
  -15.3535   -6.1961  -26.4494 C   0  0  0  0  0  0  0  0  0  0  0  0
  -15.1528   -5.2088  -27.4172 C   0  0  0  0  0  0  0  0  0  0  0  0
  -17.4309   -5.1687  -25.8805 C   0  0  0  0  0  0  0  0  0  0  0  0
  -16.8962   -2.2596  -28.9566 C   0  0  0  0  0  0  0  0  0  0  0  0
  -18.2438   -2.5973  -28.3993 C   0  0  0  0  0  0  0  0  0  0  0  0
  -15.8132   -3.2112  -28.6406 C   0  0  0  0  0  0  0  0  0  0  0  0
  -18.2419   -3.1436  -27.0229 C   0  0  0  0  0  0  0  0  0  0  0  0
  -16.4916   -6.1864  -25.6728 C   0  0  0  0  0  0  0  0  0  0  0  0
  -16.1041   -4.1987  -27.6101 C   0  0  0  0  0  0  0  0  0  0  0  0
  -17.2256   -4.2013  -26.8348 C   0  0  0  0  0  0  0  0  0  0  0  0
  -16.6534   -7.1823  -24.7246 O   0  0  0  0  0  0  0  0  0  0  0  0
  2  1  2  0
  1  8  1  0
  9  2  1  0
  8  3  2  0
  3 10  1  0
  4  5  1  0
  6  4  1  0
  5  7  1  0
  6  9  1  0
  7 10  1  0
  8 11  1  0
  9 10  2  0
M  END
$$$$
