
     RDKit          3D

 11 12  0  0  0  0  0  0  0  0999 V2000
  -15.3920   -6.2942  -26.4124 C   0  0  0  0  0  0  0  0  0  0  0  0
  -15.2433   -5.2577  -27.3371 C   0  0  0  0  0  0  0  0  0  0  0  0
  -17.2889   -5.1666  -25.5041 C   0  0  0  0  0  0  0  0  0  0  0  0
  -16.9361   -2.0925  -28.4429 C   0  0  0  0  0  0  0  0  0  0  0  0
  -18.2210   -2.3734  -27.7282 C   0  0  0  0  0  0  0  0  0  0  0  0
  -15.8993   -3.1374  -28.3358 C   0  0  0  0  0  0  0  0  0  0  0  0
  -18.0810   -3.0142  -26.4005 C   0  0  0  0  0  0  0  0  0  0  0  0
  -16.4137   -6.2597  -25.4886 C   0  0  0  0  0  0  0  0  0  0  0  0
  -16.1290   -4.1723  -27.3369 C   0  0  0  0  0  0  0  0  0  0  0  0
  -17.1354   -4.1511  -26.4172 C   0  0  0  0  0  0  0  0  0  0  0  0
  -16.5272   -7.3062  -24.5891 O   0  0  0  0  0  0  0  0  0  0  0  0
  2  1  2  0
  1  8  1  0
  9  2  1  0
  8  3  2  0
  3 10  1  0
  4  5  1  0
  6  4  1  0
  5  7  1  0
  6  9  1  0
  7 10  1  0
  8 11  1  0
  9 10  2  0
M  END
$$$$
