
     RDKit          3D

 11 12  0  0  0  0  0  0  0  0999 V2000
  -16.9952   -6.0128  -25.2384 C   0  0  0  0  0  0  0  0  0  0  0  0
  -17.7009   -4.8813  -25.6546 C   0  0  0  0  0  0  0  0  0  0  0  0
  -15.4636   -5.6779  -27.0375 C   0  0  0  0  0  0  0  0  0  0  0  0
  -17.5201   -2.1231  -28.1976 C   0  0  0  0  0  0  0  0  0  0  0  0
  -16.0935   -2.3808  -28.5705 C   0  0  0  0  0  0  0  0  0  0  0  0
  -18.0719   -2.9845  -27.1337 C   0  0  0  0  0  0  0  0  0  0  0  0
  -15.6994   -3.8073  -28.6216 C   0  0  0  0  0  0  0  0  0  0  0  0
  -15.8720   -6.4220  -25.9237 C   0  0  0  0  0  0  0  0  0  0  0  0
  -17.2766   -4.1497  -26.7714 C   0  0  0  0  0  0  0  0  0  0  0  0
  -16.1636   -4.5659  -27.4401 C   0  0  0  0  0  0  0  0  0  0  0  0
  -15.2004   -7.5484  -25.4796 O   0  0  0  0  0  0  0  0  0  0  0  0
  2  1  2  0
  1  8  1  0
  9  2  1  0
  8  3  2  0
  3 10  1  0
  4  5  1  0
  6  4  1  0
  5  7  1  0
  6  9  1  0
  7 10  1  0
  8 11  1  0
  9 10  2  0
M  END
$$$$
