
     RDKit          3D

 11 12  0  0  0  0  0  0  0  0999 V2000
  -16.9157   -6.0995  -25.2031 C   0  0  0  0  0  0  0  0  0  0  0  0
  -17.6298   -4.9659  -25.5990 C   0  0  0  0  0  0  0  0  0  0  0  0
  -15.5281   -5.8569  -27.1294 C   0  0  0  0  0  0  0  0  0  0  0  0
  -17.5997   -2.2948  -28.2394 C   0  0  0  0  0  0  0  0  0  0  0  0
  -16.2134   -2.5967  -28.7166 C   0  0  0  0  0  0  0  0  0  0  0  0
  -18.0809   -3.1092  -27.1064 C   0  0  0  0  0  0  0  0  0  0  0  0
  -15.8535   -4.0328  -28.7513 C   0  0  0  0  0  0  0  0  0  0  0  0
  -15.8601   -6.5557  -25.9621 C   0  0  0  0  0  0  0  0  0  0  0  0
  -17.2826   -4.2801  -26.7702 C   0  0  0  0  0  0  0  0  0  0  0  0
  -16.2359   -4.7426  -27.5116 C   0  0  0  0  0  0  0  0  0  0  0  0
  -15.1777   -7.6825  -25.5358 O   0  0  0  0  0  0  0  0  0  0  0  0
  2  1  2  0
  1  8  1  0
  9  2  1  0
  8  3  2  0
  3 10  1  0
  4  5  1  0
  6  4  1  0
  5  7  1  0
  6  9  1  0
  7 10  1  0
  8 11  1  0
  9 10  2  0
M  END
$$$$
