
     RDKit          3D

 11 12  0  0  0  0  0  0  0  0999 V2000
  -16.9612   -6.1503  -25.2485 C   0  0  0  0  0  0  0  0  0  0  0  0
  -17.6743   -5.0161  -25.6445 C   0  0  0  0  0  0  0  0  0  0  0  0
  -15.4861   -5.8265  -27.0963 C   0  0  0  0  0  0  0  0  0  0  0  0
  -17.5614   -2.2641  -28.1980 C   0  0  0  0  0  0  0  0  0  0  0  0
  -16.1487   -2.5295  -28.6157 C   0  0  0  0  0  0  0  0  0  0  0  0
  -18.0832   -3.1206  -27.1152 C   0  0  0  0  0  0  0  0  0  0  0  0
  -15.7633   -3.9580  -28.6762 C   0  0  0  0  0  0  0  0  0  0  0  0
  -15.8624   -6.5663  -25.9684 C   0  0  0  0  0  0  0  0  0  0  0  0
  -17.2824   -4.2889  -26.7759 C   0  0  0  0  0  0  0  0  0  0  0  0
  -16.1933   -4.7119  -27.4788 C   0  0  0  0  0  0  0  0  0  0  0  0
  -15.1824   -7.6951  -25.5435 O   0  0  0  0  0  0  0  0  0  0  0  0
  2  1  2  0
  1  8  1  0
  9  2  1  0
  8  3  2  0
  3 10  1  0
  4  5  1  0
  6  4  1  0
  5  7  1  0
  6  9  1  0
  7 10  1  0
  8 11  1  0
  9 10  2  0
M  END
$$$$
