
     RDKit          3D

 11 12  0  0  0  0  0  0  0  0999 V2000
  -15.3848   -6.2657  -26.8164 C   0  0  0  0  0  0  0  0  0  0  0  0
  -15.3627   -5.1261  -27.6240 C   0  0  0  0  0  0  0  0  0  0  0  0
  -17.2388   -5.3464  -25.6280 C   0  0  0  0  0  0  0  0  0  0  0  0
  -17.2784   -1.9491  -28.2103 C   0  0  0  0  0  0  0  0  0  0  0  0
  -18.4816   -2.3743  -27.4279 C   0  0  0  0  0  0  0  0  0  0  0  0
  -16.1933   -2.9444  -28.3121 C   0  0  0  0  0  0  0  0  0  0  0  0
  -18.1971   -3.1512  -26.1997 C   0  0  0  0  0  0  0  0  0  0  0  0
  -16.3206   -6.3876  -25.8125 C   0  0  0  0  0  0  0  0  0  0  0  0
  -16.2895   -4.0948  -27.4240 C   0  0  0  0  0  0  0  0  0  0  0  0
  -17.2100   -4.2286  -26.4271 C   0  0  0  0  0  0  0  0  0  0  0  0
  -16.3096   -7.5324  -25.0338 O   0  0  0  0  0  0  0  0  0  0  0  0
  2  1  2  0
  1  8  1  0
  9  2  1  0
  8  3  2  0
  3 10  1  0
  4  5  1  0
  6  4  1  0
  5  7  1  0
  6  9  1  0
  7 10  1  0
  8 11  1  0
  9 10  2  0
M  END
$$$$
