
     RDKit          3D

 11 12  0  0  0  0  0  0  0  0999 V2000
  -17.2851   -6.1135  -25.2622 C   0  0  0  0  0  0  0  0  0  0  0  0
  -17.9644   -4.9513  -25.6356 C   0  0  0  0  0  0  0  0  0  0  0  0
  -15.8158   -5.8107  -27.1180 C   0  0  0  0  0  0  0  0  0  0  0  0
  -17.7838   -2.1676  -28.1507 C   0  0  0  0  0  0  0  0  0  0  0  0
  -16.3840   -2.4724  -28.5845 C   0  0  0  0  0  0  0  0  0  0  0  0
  -18.3240   -3.0224  -27.0756 C   0  0  0  0  0  0  0  0  0  0  0  0
  -16.0455   -3.9116  -28.6687 C   0  0  0  0  0  0  0  0  0  0  0  0
  -16.2065   -6.5542  -25.9975 C   0  0  0  0  0  0  0  0  0  0  0  0
  -17.5586   -4.2208  -26.7600 C   0  0  0  0  0  0  0  0  0  0  0  0
  -16.4897   -4.6685  -27.4785 C   0  0  0  0  0  0  0  0  0  0  0  0
  -15.5599   -7.7104  -25.5947 O   0  0  0  0  0  0  0  0  0  0  0  0
  2  1  2  0
  1  8  1  0
  9  2  1  0
  8  3  2  0
  3 10  1  0
  4  5  1  0
  6  4  1  0
  5  7  1  0
  6  9  1  0
  7 10  1  0
  8 11  1  0
  9 10  2  0
M  END
$$$$
