
     RDKit          3D

 11 12  0  0  0  0  0  0  0  0999 V2000
  -16.7960   -5.9546  -25.1884 C   0  0  0  0  0  0  0  0  0  0  0  0
  -17.4741   -4.8131  -25.6227 C   0  0  0  0  0  0  0  0  0  0  0  0
  -15.4550   -5.8672  -27.1605 C   0  0  0  0  0  0  0  0  0  0  0  0
  -17.4099   -2.2805  -28.3957 C   0  0  0  0  0  0  0  0  0  0  0  0
  -16.0513   -2.6641  -28.8932 C   0  0  0  0  0  0  0  0  0  0  0  0
  -17.8917   -3.0163  -27.2104 C   0  0  0  0  0  0  0  0  0  0  0  0
  -15.7515   -4.1140  -28.8642 C   0  0  0  0  0  0  0  0  0  0  0  0
  -15.7820   -6.4923  -25.9508 C   0  0  0  0  0  0  0  0  0  0  0  0
  -17.1326   -4.2017  -26.8361 C   0  0  0  0  0  0  0  0  0  0  0  0
  -16.1272   -4.7444  -27.5803 C   0  0  0  0  0  0  0  0  0  0  0  0
  -15.1343   -7.6243  -25.4857 O   0  0  0  0  0  0  0  0  0  0  0  0
  2  1  2  0
  1  8  1  0
  9  2  1  0
  8  3  2  0
  3 10  1  0
  4  5  1  0
  6  4  1  0
  5  7  1  0
  6  9  1  0
  7 10  1  0
  8 11  1  0
  9 10  2  0
M  END
$$$$
