
     RDKit          3D

 11 12  0  0  0  0  0  0  0  0999 V2000
  -15.0737   -6.0789  -26.5576 C   0  0  0  0  0  0  0  0  0  0  0  0
  -14.9622   -5.0071  -27.4466 C   0  0  0  0  0  0  0  0  0  0  0  0
  -17.1031   -5.1362  -25.7283 C   0  0  0  0  0  0  0  0  0  0  0  0
  -16.8498   -1.9590  -28.5660 C   0  0  0  0  0  0  0  0  0  0  0  0
  -18.1433   -2.3642  -27.9310 C   0  0  0  0  0  0  0  0  0  0  0  0
  -15.7373   -2.9189  -28.4275 C   0  0  0  0  0  0  0  0  0  0  0  0
  -18.0217   -3.0300  -26.6138 C   0  0  0  0  0  0  0  0  0  0  0  0
  -16.1425   -6.1545  -25.6913 C   0  0  0  0  0  0  0  0  0  0  0  0
  -15.9335   -3.9978  -27.4688 C   0  0  0  0  0  0  0  0  0  0  0  0
  -16.9857   -4.0853  -26.6061 C   0  0  0  0  0  0  0  0  0  0  0  0
  -16.2168   -7.2326  -24.8257 O   0  0  0  0  0  0  0  0  0  0  0  0
  2  1  2  0
  1  8  1  0
  9  2  1  0
  8  3  2  0
  3 10  1  0
  4  5  1  0
  6  4  1  0
  5  7  1  0
  6  9  1  0
  7 10  1  0
  8 11  1  0
  9 10  2  0
M  END
$$$$
