
     RDKit          3D

 11 12  0  0  0  0  0  0  0  0999 V2000
  -15.1046   -6.1998  -26.7166 C   0  0  0  0  0  0  0  0  0  0  0  0
  -15.1399   -5.0262  -27.4736 C   0  0  0  0  0  0  0  0  0  0  0  0
  -17.0517   -5.4651  -25.5487 C   0  0  0  0  0  0  0  0  0  0  0  0
  -17.2573   -1.9661  -27.9830 C   0  0  0  0  0  0  0  0  0  0  0  0
  -18.4492   -2.5082  -27.2578 C   0  0  0  0  0  0  0  0  0  0  0  0
  -16.1023   -2.8784  -28.0933 C   0  0  0  0  0  0  0  0  0  0  0  0
  -18.1456   -3.3180  -26.0557 C   0  0  0  0  0  0  0  0  0  0  0  0
  -16.0576   -6.4310  -25.7488 C   0  0  0  0  0  0  0  0  0  0  0  0
  -16.1424   -4.0715  -27.2588 C   0  0  0  0  0  0  0  0  0  0  0  0
  -17.0790   -4.3133  -26.2979 C   0  0  0  0  0  0  0  0  0  0  0  0
  -15.9881   -7.6062  -25.0199 O   0  0  0  0  0  0  0  0  0  0  0  0
  2  1  2  0
  1  8  1  0
  9  2  1  0
  8  3  2  0
  3 10  1  0
  4  5  1  0
  6  4  1  0
  5  7  1  0
  6  9  1  0
  7 10  1  0
  8 11  1  0
  9 10  2  0
M  END
$$$$
