
     RDKit          3D

 19 20  0  0  0  0  0  0  0  0999 V2000
  -16.9598   16.5422  133.7595 O   0  0  0  0  0  0  0  0  0  0  0  0
  -17.9628   16.4781  134.5066 C   0  0  0  0  0  0  0  0  0  0  0  0
  -17.8019   16.0331  135.8018 O   0  0  0  0  0  0  0  0  0  0  0  0
  -19.2648   16.8889  133.9455 C   0  0  0  0  0  0  0  0  0  0  0  0
  -20.2519   16.8396  134.7314 N   0  0  0  0  0  0  0  0  0  0  0  0
  -19.3501   17.3274  132.5419 C   0  0  0  0  0  0  0  0  0  0  0  0
  -18.7933   16.3967  131.6698 O   0  0  0  0  0  0  0  0  0  0  0  0
  -20.7258   17.6847  132.2045 C   0  0  0  0  0  0  0  0  0  0  0  0
  -21.0649   18.0921  131.0487 O   0  0  0  0  0  0  0  0  0  0  0  0
  -21.7893   17.5892  133.1923 C   0  0  0  0  0  0  0  0  0  0  0  0
  -21.5994   17.1772  134.4501 C   0  0  0  0  0  0  0  0  0  0  0  0
  -22.6683   17.1123  135.4421 C   0  0  0  0  0  0  0  0  0  0  0  0
  -23.5057   18.1919  135.6396 C   0  0  0  0  0  0  0  0  0  0  0  0
  -24.5507   18.2263  136.5373 C   0  0  0  0  0  0  0  0  0  0  0  0
  -24.7911   17.1103  137.3018 C   0  0  0  0  0  0  0  0  0  0  0  0
  -23.9942   16.0221  137.1438 C   0  0  0  0  0  0  0  0  0  0  0  0
  -22.9305   16.0079  136.2189 C   0  0  0  0  0  0  0  0  0  0  0  0
  -22.1219   14.7872  136.0788 C   0  0  0  0  0  0  0  0  0  0  0  0
  -21.0091   14.8211  137.1113 C   0  0  0  0  0  0  0  0  0  0  0  0
  1  2  2  0
  2  3  1  0
  2  4  1  0
  4  5  2  0
  4  6  1  0
  5 11  1  0
  6  7  1  0
  6  8  1  0
  8  9  2  0
  8 10  1  0
 10 11  2  0
 11 12  1  0
 12 13  2  0
 12 17  1  0
 13 14  1  0
 14 15  2  0
 15 16  1  0
 16 17  2  0
 17 18  1  0
 18 19  1  0
M  END
$$$$
