
     RDKit          3D

 19 20  0  0  0  0  0  0  0  0999 V2000
  -17.3248   15.8690  133.7714 O   0  0  0  0  0  0  0  0  0  0  0  0
  -18.3044   16.0465  134.5312 C   0  0  0  0  0  0  0  0  0  0  0  0
  -18.2220   15.6128  135.8375 O   0  0  0  0  0  0  0  0  0  0  0  0
  -19.4949   16.7167  133.9722 C   0  0  0  0  0  0  0  0  0  0  0  0
  -20.5079   16.7737  134.7237 N   0  0  0  0  0  0  0  0  0  0  0  0
  -19.4474   17.2741  132.6095 C   0  0  0  0  0  0  0  0  0  0  0  0
  -19.0188   16.3349  131.6763 O   0  0  0  0  0  0  0  0  0  0  0  0
  -20.7286   17.8864  132.2667 C   0  0  0  0  0  0  0  0  0  0  0  0
  -20.9465   18.4367  131.1413 O   0  0  0  0  0  0  0  0  0  0  0  0
  -21.8330   17.8948  133.2133 C   0  0  0  0  0  0  0  0  0  0  0  0
  -21.7670   17.3573  134.4358 C   0  0  0  0  0  0  0  0  0  0  0  0
  -22.8718   17.3964  135.3892 C   0  0  0  0  0  0  0  0  0  0  0  0
  -24.0555   16.7412  135.1152 C   0  0  0  0  0  0  0  0  0  0  0  0
  -25.1492   16.7042  135.9528 C   0  0  0  0  0  0  0  0  0  0  0  0
  -25.0728   17.3642  137.1553 C   0  0  0  0  0  0  0  0  0  0  0  0
  -23.9283   18.0237  137.4706 C   0  0  0  0  0  0  0  0  0  0  0  0
  -22.8206   18.0486  136.5992 C   0  0  0  0  0  0  0  0  0  0  0  0
  -21.6016   18.7598  137.0133 C   0  0  0  0  0  0  0  0  0  0  0  0
  -21.6313   20.1583  136.4226 C   0  0  0  0  0  0  0  0  0  0  0  0
  1  2  2  0
  2  3  1  0
  2  4  1  0
  4  5  2  0
  4  6  1  0
  5 11  1  0
  6  7  1  0
  6  8  1  0
  8  9  2  0
  8 10  1  0
 10 11  2  0
 11 12  1  0
 12 13  2  0
 12 17  1  0
 13 14  1  0
 14 15  2  0
 15 16  1  0
 16 17  2  0
 17 18  1  0
 18 19  1  0
M  END
$$$$
