
     RDKit          3D

 19 20  0  0  0  0  0  0  0  0999 V2000
  -22.2977   18.8377  133.1838 O   0  0  0  0  0  0  0  0  0  0  0  0
  -21.4408   18.2768  132.4630 C   0  0  0  0  0  0  0  0  0  0  0  0
  -21.3858   18.5952  131.1225 O   0  0  0  0  0  0  0  0  0  0  0  0
  -20.5360   17.3021  133.1035 C   0  0  0  0  0  0  0  0  0  0  0  0
  -20.7797   17.0236  134.3108 N   0  0  0  0  0  0  0  0  0  0  0  0
  -19.4289   16.7146  132.3296 C   0  0  0  0  0  0  0  0  0  0  0  0
  -18.6373   17.6890  131.7292 O   0  0  0  0  0  0  0  0  0  0  0  0
  -18.6688   15.7824  133.1587 C   0  0  0  0  0  0  0  0  0  0  0  0
  -17.6581   15.1450  132.7239 O   0  0  0  0  0  0  0  0  0  0  0  0
  -19.0396   15.5364  134.5436 C   0  0  0  0  0  0  0  0  0  0  0  0
  -20.0736   16.1273  135.1515 C   0  0  0  0  0  0  0  0  0  0  0  0
  -20.4549   15.8519  136.5333 C   0  0  0  0  0  0  0  0  0  0  0  0
  -21.2028   14.7336  136.8428 C   0  0  0  0  0  0  0  0  0  0  0  0
  -21.6002   14.3768  138.1132 C   0  0  0  0  0  0  0  0  0  0  0  0
  -21.2330   15.1840  139.1626 C   0  0  0  0  0  0  0  0  0  0  0  0
  -20.4962   16.2961  138.9088 C   0  0  0  0  0  0  0  0  0  0  0  0
  -20.0997   16.6427  137.6013 C   0  0  0  0  0  0  0  0  0  0  0  0
  -19.2801   17.8470  137.3988 C   0  0  0  0  0  0  0  0  0  0  0  0
  -17.8254   17.4291  137.2768 C   0  0  0  0  0  0  0  0  0  0  0  0
  1  2  2  0
  2  3  1  0
  2  4  1  0
  4  5  2  0
  4  6  1  0
  5 11  1  0
  6  7  1  0
  6  8  1  0
  8  9  2  0
  8 10  1  0
 10 11  2  0
 11 12  1  0
 12 13  2  0
 12 17  1  0
 13 14  1  0
 14 15  2  0
 15 16  1  0
 16 17  2  0
 17 18  1  0
 18 19  1  0
M  END
$$$$
