
     RDKit          3D

 19 20  0  0  0  0  0  0  0  0999 V2000
  -22.2825   19.5907  132.7473 O   0  0  0  0  0  0  0  0  0  0  0  0
  -21.3845   18.8755  132.2469 C   0  0  0  0  0  0  0  0  0  0  0  0
  -20.9452   19.1534  130.9697 O   0  0  0  0  0  0  0  0  0  0  0  0
  -20.8491   17.7710  133.0669 C   0  0  0  0  0  0  0  0  0  0  0  0
  -21.2542   17.7154  134.2615 N   0  0  0  0  0  0  0  0  0  0  0  0
  -19.9012   16.8127  132.4728 C   0  0  0  0  0  0  0  0  0  0  0  0
  -18.8197   17.4518  131.8739 O   0  0  0  0  0  0  0  0  0  0  0  0
  -19.5063   15.8111  133.4601 C   0  0  0  0  0  0  0  0  0  0  0  0
  -18.6907   14.8720  133.1960 O   0  0  0  0  0  0  0  0  0  0  0  0
  -20.0370   15.8427  134.8141 C   0  0  0  0  0  0  0  0  0  0  0  0
  -20.9014   16.7642  135.2513 C   0  0  0  0  0  0  0  0  0  0  0  0
  -21.4504   16.7702  136.6039 C   0  0  0  0  0  0  0  0  0  0  0  0
  -20.6120   16.8342  137.6987 C   0  0  0  0  0  0  0  0  0  0  0  0
  -21.0293   16.8607  139.0118 C   0  0  0  0  0  0  0  0  0  0  0  0
  -22.3784   16.8209  139.2686 C   0  0  0  0  0  0  0  0  0  0  0  0
  -23.2439   16.7577  138.2241 C   0  0  0  0  0  0  0  0  0  0  0  0
  -22.7958   16.7322  136.8879 C   0  0  0  0  0  0  0  0  0  0  0  0
  -23.7873   16.6898  135.8024 C   0  0  0  0  0  0  0  0  0  0  0  0
  -23.7832   15.2980  135.1954 C   0  0  0  0  0  0  0  0  0  0  0  0
  1  2  2  0
  2  3  1  0
  2  4  1  0
  4  5  2  0
  4  6  1  0
  5 11  1  0
  6  7  1  0
  6  8  1  0
  8  9  2  0
  8 10  1  0
 10 11  2  0
 11 12  1  0
 12 13  2  0
 12 17  1  0
 13 14  1  0
 14 15  2  0
 15 16  1  0
 16 17  2  0
 17 18  1  0
 18 19  1  0
M  END
$$$$
