
     RDKit          3D

 19 20  0  0  0  0  0  0  0  0999 V2000
  -17.2944   15.7925  133.7924 O   0  0  0  0  0  0  0  0  0  0  0  0
  -18.2851   15.8722  134.5545 C   0  0  0  0  0  0  0  0  0  0  0  0
  -18.1813   15.3760  135.8368 O   0  0  0  0  0  0  0  0  0  0  0  0
  -19.5112   16.4998  134.0240 C   0  0  0  0  0  0  0  0  0  0  0  0
  -20.5167   16.4942  134.7878 N   0  0  0  0  0  0  0  0  0  0  0  0
  -19.5054   17.0888  132.6738 C   0  0  0  0  0  0  0  0  0  0  0  0
  -19.0462   16.1909  131.7149 O   0  0  0  0  0  0  0  0  0  0  0  0
  -20.8170   17.6499  132.3592 C   0  0  0  0  0  0  0  0  0  0  0  0
  -21.0731   18.2145  131.2490 O   0  0  0  0  0  0  0  0  0  0  0  0
  -21.9091   17.5873  133.3180 C   0  0  0  0  0  0  0  0  0  0  0  0
  -21.8042   17.0264  134.5272 C   0  0  0  0  0  0  0  0  0  0  0  0
  -22.8980   16.9943  135.4933 C   0  0  0  0  0  0  0  0  0  0  0  0
  -24.0625   16.3097  135.2089 C   0  0  0  0  0  0  0  0  0  0  0  0
  -25.1441   16.2061  136.0565 C   0  0  0  0  0  0  0  0  0  0  0  0
  -25.0751   16.8251  137.2811 C   0  0  0  0  0  0  0  0  0  0  0  0
  -23.9494   17.5111  137.6074 C   0  0  0  0  0  0  0  0  0  0  0  0
  -22.8538   17.6043  136.7254 C   0  0  0  0  0  0  0  0  0  0  0  0
  -21.6542   18.3409  137.1515 C   0  0  0  0  0  0  0  0  0  0  0  0
  -20.7376   17.3865  137.8962 C   0  0  0  0  0  0  0  0  0  0  0  0
  1  2  2  0
  2  3  1  0
  2  4  1  0
  4  5  2  0
  4  6  1  0
  5 11  1  0
  6  7  1  0
  6  8  1  0
  8  9  2  0
  8 10  1  0
 10 11  2  0
 11 12  1  0
 12 13  2  0
 12 17  1  0
 13 14  1  0
 14 15  2  0
 15 16  1  0
 16 17  2  0
 17 18  1  0
 18 19  1  0
M  END
$$$$
