
     RDKit          3D

 19 20  0  0  0  0  0  0  0  0999 V2000
  -21.6139   19.1276  131.7956 O   0  0  0  0  0  0  0  0  0  0  0  0
  -21.6454   18.8354  133.0130 C   0  0  0  0  0  0  0  0  0  0  0  0
  -22.4273   19.5921  133.8601 O   0  0  0  0  0  0  0  0  0  0  0  0
  -20.8355   17.6872  133.4651 C   0  0  0  0  0  0  0  0  0  0  0  0
  -21.0505   17.2809  134.6412 N   0  0  0  0  0  0  0  0  0  0  0  0
  -19.8489   17.0842  132.5526 C   0  0  0  0  0  0  0  0  0  0  0  0
  -18.9752   18.0323  132.0287 O   0  0  0  0  0  0  0  0  0  0  0  0
  -19.1678   15.9694  133.2063 C   0  0  0  0  0  0  0  0  0  0  0  0
  -18.2657   15.2835  132.6295 O   0  0  0  0  0  0  0  0  0  0  0  0
  -19.4959   15.5862  134.5707 C   0  0  0  0  0  0  0  0  0  0  0  0
  -20.4180   16.2060  135.3145 C   0  0  0  0  0  0  0  0  0  0  0  0
  -20.7603   15.7955  136.6728 C   0  0  0  0  0  0  0  0  0  0  0  0
  -21.4369   14.6132  136.8966 C   0  0  0  0  0  0  0  0  0  0  0  0
  -21.7922   14.1299  138.1372 C   0  0  0  0  0  0  0  0  0  0  0  0
  -21.4556   14.8680  139.2459 C   0  0  0  0  0  0  0  0  0  0  0  0
  -20.7888   16.0390  139.0774 C   0  0  0  0  0  0  0  0  0  0  0  0
  -20.4343   16.5151  137.7989 C   0  0  0  0  0  0  0  0  0  0  0  0
  -19.6894   17.7785  137.6881 C   0  0  0  0  0  0  0  0  0  0  0  0
  -20.6746   18.9312  137.7665 C   0  0  0  0  0  0  0  0  0  0  0  0
  1  2  2  0
  2  3  1  0
  2  4  1  0
  4  5  2  0
  4  6  1  0
  5 11  1  0
  6  7  1  0
  6  8  1  0
  8  9  2  0
  8 10  1  0
 10 11  2  0
 11 12  1  0
 12 13  2  0
 12 17  1  0
 13 14  1  0
 14 15  2  0
 15 16  1  0
 16 17  2  0
 17 18  1  0
 18 19  1  0
M  END
$$$$
