
     RDKit          3D

 19 20  0  0  0  0  0  0  0  0999 V2000
  -20.7399   18.8682  130.7760 O   0  0  0  0  0  0  0  0  0  0  0  0
  -21.2399   18.7880  131.9214 C   0  0  0  0  0  0  0  0  0  0  0  0
  -22.2277   19.6801  132.2816 O   0  0  0  0  0  0  0  0  0  0  0  0
  -20.7338   17.7315  132.8195 C   0  0  0  0  0  0  0  0  0  0  0  0
  -21.3536   17.5809  133.9093 N   0  0  0  0  0  0  0  0  0  0  0  0
  -19.5698   16.9243  132.4153 C   0  0  0  0  0  0  0  0  0  0  0  0
  -18.4864   17.7176  132.0499 O   0  0  0  0  0  0  0  0  0  0  0  0
  -19.2466   15.9457  133.4506 C   0  0  0  0  0  0  0  0  0  0  0  0
  -18.2782   15.1286  133.3437 O   0  0  0  0  0  0  0  0  0  0  0  0
  -20.0311   15.8597  134.6725 C   0  0  0  0  0  0  0  0  0  0  0  0
  -21.0784   16.6469  134.9392 C   0  0  0  0  0  0  0  0  0  0  0  0
  -21.8771   16.5333  136.1558 C   0  0  0  0  0  0  0  0  0  0  0  0
  -23.2533   16.4526  136.0840 C   0  0  0  0  0  0  0  0  0  0  0  0
  -24.0942   16.3280  137.1686 C   0  0  0  0  0  0  0  0  0  0  0  0
  -23.5374   16.2792  138.4237 C   0  0  0  0  0  0  0  0  0  0  0  0
  -22.1871   16.3547  138.5462 C   0  0  0  0  0  0  0  0  0  0  0  0
  -21.3448   16.4814  137.4231 C   0  0  0  0  0  0  0  0  0  0  0  0
  -19.8886   16.5316  137.6241 C   0  0  0  0  0  0  0  0  0  0  0  0
  -19.3979   17.9248  137.2723 C   0  0  0  0  0  0  0  0  0  0  0  0
  1  2  2  0
  2  3  1  0
  2  4  1  0
  4  5  2  0
  4  6  1  0
  5 11  1  0
  6  7  1  0
  6  8  1  0
  8  9  2  0
  8 10  1  0
 10 11  2  0
 11 12  1  0
 12 13  2  0
 12 17  1  0
 13 14  1  0
 14 15  2  0
 15 16  1  0
 16 17  2  0
 17 18  1  0
 18 19  1  0
M  END
$$$$
