
     RDKit          3D

 19 20  0  0  0  0  0  0  0  0999 V2000
  -21.4990   18.9132  131.4561 O   0  0  0  0  0  0  0  0  0  0  0  0
  -21.7530   18.6591  132.6558 C   0  0  0  0  0  0  0  0  0  0  0  0
  -22.6774   19.4370  133.3206 O   0  0  0  0  0  0  0  0  0  0  0  0
  -21.0392   17.5308  133.2852 C   0  0  0  0  0  0  0  0  0  0  0  0
  -21.3776   17.2461  134.4679 N   0  0  0  0  0  0  0  0  0  0  0  0
  -20.0017   16.8091  132.5287 C   0  0  0  0  0  0  0  0  0  0  0  0
  -19.0429   17.6713  132.0051 O   0  0  0  0  0  0  0  0  0  0  0  0
  -19.4327   15.7378  133.3427 C   0  0  0  0  0  0  0  0  0  0  0  0
  -18.5135   14.9684  132.9185 O   0  0  0  0  0  0  0  0  0  0  0  0
  -19.8996   15.4979  134.6993 C   0  0  0  0  0  0  0  0  0  0  0  0
  -20.8569   16.2181  135.2932 C   0  0  0  0  0  0  0  0  0  0  0  0
  -21.3386   15.9510  136.6450 C   0  0  0  0  0  0  0  0  0  0  0  0
  -20.4595   15.9285  137.7090 C   0  0  0  0  0  0  0  0  0  0  0  0
  -20.8142   15.7017  139.0212 C   0  0  0  0  0  0  0  0  0  0  0  0
  -22.1388   15.4789  139.3098 C   0  0  0  0  0  0  0  0  0  0  0  0
  -23.0427   15.4913  138.2963 C   0  0  0  0  0  0  0  0  0  0  0  0
  -22.6584   15.7260  136.9606 C   0  0  0  0  0  0  0  0  0  0  0  0
  -23.6915   15.7520  135.9140 C   0  0  0  0  0  0  0  0  0  0  0  0
  -24.2861   17.1479  135.8536 C   0  0  0  0  0  0  0  0  0  0  0  0
  1  2  2  0
  2  3  1  0
  2  4  1  0
  4  5  2  0
  4  6  1  0
  5 11  1  0
  6  7  1  0
  6  8  1  0
  8  9  2  0
  8 10  1  0
 10 11  2  0
 11 12  1  0
 12 13  2  0
 12 17  1  0
 13 14  1  0
 14 15  2  0
 15 16  1  0
 16 17  2  0
 17 18  1  0
 18 19  1  0
M  END
$$$$
