
     RDKit          3D

 19 20  0  0  0  0  0  0  0  0999 V2000
  -16.8537   16.1049  133.4549 O   0  0  0  0  0  0  0  0  0  0  0  0
  -17.7418   15.9957  134.3311 C   0  0  0  0  0  0  0  0  0  0  0  0
  -17.4237   15.3967  135.5316 O   0  0  0  0  0  0  0  0  0  0  0  0
  -19.0847   16.5222  134.0175 C   0  0  0  0  0  0  0  0  0  0  0  0
  -19.9626   16.3824  134.9143 N   0  0  0  0  0  0  0  0  0  0  0  0
  -19.3307   17.1695  132.7174 C   0  0  0  0  0  0  0  0  0  0  0  0
  -18.9367   16.3660  131.6517 O   0  0  0  0  0  0  0  0  0  0  0  0
  -20.7200   17.6115  132.6254 C   0  0  0  0  0  0  0  0  0  0  0  0
  -21.1865   18.1978  131.5979 O   0  0  0  0  0  0  0  0  0  0  0  0
  -21.6494   17.3976  133.7236 C   0  0  0  0  0  0  0  0  0  0  0  0
  -21.3176   16.7956  134.8704 C   0  0  0  0  0  0  0  0  0  0  0  0
  -22.2504   16.6115  135.9780 C   0  0  0  0  0  0  0  0  0  0  0  0
  -22.8355   15.3815  136.2025 C   0  0  0  0  0  0  0  0  0  0  0  0
  -23.7142   15.1006  137.2262 C   0  0  0  0  0  0  0  0  0  0  0  0
  -24.0441   16.1097  138.0983 C   0  0  0  0  0  0  0  0  0  0  0  0
  -23.4939   17.3383  137.9190 C   0  0  0  0  0  0  0  0  0  0  0  0
  -22.5963   17.6042  136.8652 C   0  0  0  0  0  0  0  0  0  0  0  0
  -22.0161   18.9502  136.7433 C   0  0  0  0  0  0  0  0  0  0  0  0
  -20.6450   18.9485  137.3958 C   0  0  0  0  0  0  0  0  0  0  0  0
  1  2  2  0
  2  3  1  0
  2  4  1  0
  4  5  2  0
  4  6  1  0
  5 11  1  0
  6  7  1  0
  6  8  1  0
  8  9  2  0
  8 10  1  0
 10 11  2  0
 11 12  1  0
 12 13  2  0
 12 17  1  0
 13 14  1  0
 14 15  2  0
 15 16  1  0
 16 17  2  0
 17 18  1  0
 18 19  1  0
M  END
$$$$
