
     RDKit          3D

 19 20  0  0  0  0  0  0  0  0999 V2000
  -17.1514   16.2750  133.6399 O   0  0  0  0  0  0  0  0  0  0  0  0
  -18.1292   16.3668  134.4171 C   0  0  0  0  0  0  0  0  0  0  0  0
  -17.9409   16.1086  135.7585 O   0  0  0  0  0  0  0  0  0  0  0  0
  -19.4323   16.7505  133.8396 C   0  0  0  0  0  0  0  0  0  0  0  0
  -20.4265   16.6895  134.6156 N   0  0  0  0  0  0  0  0  0  0  0  0
  -19.5106   17.1773  132.4320 C   0  0  0  0  0  0  0  0  0  0  0  0
  -18.9284   16.2504  131.5726 O   0  0  0  0  0  0  0  0  0  0  0  0
  -20.8887   17.5080  132.0778 C   0  0  0  0  0  0  0  0  0  0  0  0
  -21.2227   17.9010  130.9156 O   0  0  0  0  0  0  0  0  0  0  0  0
  -21.9606   17.4008  133.0553 C   0  0  0  0  0  0  0  0  0  0  0  0
  -21.7767   17.0013  134.3179 C   0  0  0  0  0  0  0  0  0  0  0  0
  -22.8546   16.9248  135.2993 C   0  0  0  0  0  0  0  0  0  0  0  0
  -23.7431   17.9711  135.4453 C   0  0  0  0  0  0  0  0  0  0  0  0
  -24.8004   17.9912  136.3289 C   0  0  0  0  0  0  0  0  0  0  0  0
  -24.9996   16.8951  137.1330 C   0  0  0  0  0  0  0  0  0  0  0  0
  -24.1517   15.8398  137.0262 C   0  0  0  0  0  0  0  0  0  0  0  0
  -23.0763   15.8396  136.1150 C   0  0  0  0  0  0  0  0  0  0  0  0
  -22.2108   14.6533  136.0314 C   0  0  0  0  0  0  0  0  0  0  0  0
  -21.2220   14.6918  137.1831 C   0  0  0  0  0  0  0  0  0  0  0  0
  1  2  2  0
  2  3  1  0
  2  4  1  0
  4  5  2  0
  4  6  1  0
  5 11  1  0
  6  7  1  0
  6  8  1  0
  8  9  2  0
  8 10  1  0
 10 11  2  0
 11 12  1  0
 12 13  2  0
 12 17  1  0
 13 14  1  0
 14 15  2  0
 15 16  1  0
 16 17  2  0
 17 18  1  0
 18 19  1  0
M  END
$$$$
