
     RDKit          3D

 19 20  0  0  0  0  0  0  0  0999 V2000
  -21.5819   19.6004  132.1720 O   0  0  0  0  0  0  0  0  0  0  0  0
  -21.6177   19.0399  133.2913 C   0  0  0  0  0  0  0  0  0  0  0  0
  -22.2294   19.6894  134.3427 O   0  0  0  0  0  0  0  0  0  0  0  0
  -20.9969   17.7062  133.4120 C   0  0  0  0  0  0  0  0  0  0  0  0
  -21.1059   17.1392  134.5350 N   0  0  0  0  0  0  0  0  0  0  0  0
  -20.3051   17.1145  132.2540 C   0  0  0  0  0  0  0  0  0  0  0  0
  -19.3490   17.9747  131.7222 O   0  0  0  0  0  0  0  0  0  0  0  0
  -19.7711   15.7994  132.5994 C   0  0  0  0  0  0  0  0  0  0  0  0
  -19.1261   15.0819  131.7711 O   0  0  0  0  0  0  0  0  0  0  0  0
  -19.9558   15.2406  133.9296 C   0  0  0  0  0  0  0  0  0  0  0  0
  -20.6078   15.8676  134.9142 C   0  0  0  0  0  0  0  0  0  0  0  0
  -20.8127   15.2859  136.2373 C   0  0  0  0  0  0  0  0  0  0  0  0
  -19.7403   15.0656  137.0781 C   0  0  0  0  0  0  0  0  0  0  0  0
  -19.8285   14.5374  138.3479 C   0  0  0  0  0  0  0  0  0  0  0  0
  -21.0701   14.1988  138.8289 C   0  0  0  0  0  0  0  0  0  0  0  0
  -22.1567   14.3971  138.0388 C   0  0  0  0  0  0  0  0  0  0  0  0
  -22.0442   14.9394  136.7426 C   0  0  0  0  0  0  0  0  0  0  0  0
  -23.2640   15.1526  135.9490 C   0  0  0  0  0  0  0  0  0  0  0  0
  -23.7720   16.5598  136.2086 C   0  0  0  0  0  0  0  0  0  0  0  0
  1  2  2  0
  2  3  1  0
  2  4  1  0
  4  5  2  0
  4  6  1  0
  5 11  1  0
  6  7  1  0
  6  8  1  0
  8  9  2  0
  8 10  1  0
 10 11  2  0
 11 12  1  0
 12 13  2  0
 12 17  1  0
 13 14  1  0
 14 15  2  0
 15 16  1  0
 16 17  2  0
 17 18  1  0
 18 19  1  0
M  END
$$$$
