
     RDKit          3D

 19 20  0  0  0  0  0  0  0  0999 V2000
  -17.0575   16.7934  133.6718 O   0  0  0  0  0  0  0  0  0  0  0  0
  -18.0380   16.7500  134.4497 C   0  0  0  0  0  0  0  0  0  0  0  0
  -17.8236   16.4379  135.7756 O   0  0  0  0  0  0  0  0  0  0  0  0
  -19.3726   17.0402  133.8899 C   0  0  0  0  0  0  0  0  0  0  0  0
  -20.3436   16.9646  134.6935 N   0  0  0  0  0  0  0  0  0  0  0  0
  -19.5065   17.3975  132.4672 C   0  0  0  0  0  0  0  0  0  0  0  0
  -18.8976   16.4628  131.6350 O   0  0  0  0  0  0  0  0  0  0  0  0
  -20.9079   17.6412  132.1348 C   0  0  0  0  0  0  0  0  0  0  0  0
  -21.2895   17.9631  130.9652 O   0  0  0  0  0  0  0  0  0  0  0  0
  -21.9493   17.5248  133.1437 C   0  0  0  0  0  0  0  0  0  0  0  0
  -21.7149   17.1934  134.4176 C   0  0  0  0  0  0  0  0  0  0  0  0
  -22.7637   17.1074  135.4293 C   0  0  0  0  0  0  0  0  0  0  0  0
  -23.7431   18.0772  135.5055 C   0  0  0  0  0  0  0  0  0  0  0  0
  -24.7822   18.0800  136.4107 C   0  0  0  0  0  0  0  0  0  0  0  0
  -24.8643   17.0472  137.3130 C   0  0  0  0  0  0  0  0  0  0  0  0
  -23.9237   16.0683  137.2777 C   0  0  0  0  0  0  0  0  0  0  0  0
  -22.8690   16.0843  136.3427 C   0  0  0  0  0  0  0  0  0  0  0  0
  -21.8984   14.9792  136.3414 C   0  0  0  0  0  0  0  0  0  0  0  0
  -22.2023   14.0678  135.1656 C   0  0  0  0  0  0  0  0  0  0  0  0
  1  2  2  0
  2  3  1  0
  2  4  1  0
  4  5  2  0
  4  6  1  0
  5 11  1  0
  6  7  1  0
  6  8  1  0
  8  9  2  0
  8 10  1  0
 10 11  2  0
 11 12  1  0
 12 13  2  0
 12 17  1  0
 13 14  1  0
 14 15  2  0
 15 16  1  0
 16 17  2  0
 17 18  1  0
 18 19  1  0
M  END
$$$$
