
     RDKit          3D

 19 20  0  0  0  0  0  0  0  0999 V2000
  -21.1539   19.7387  132.1797 O   0  0  0  0  0  0  0  0  0  0  0  0
  -21.3023   19.2852  133.3376 C   0  0  0  0  0  0  0  0  0  0  0  0
  -21.8841   20.0860  134.2976 O   0  0  0  0  0  0  0  0  0  0  0  0
  -20.8406   17.9080  133.6005 C   0  0  0  0  0  0  0  0  0  0  0  0
  -21.1058   17.4387  134.7424 N   0  0  0  0  0  0  0  0  0  0  0  0
  -20.1190   17.1665  132.5521 C   0  0  0  0  0  0  0  0  0  0  0  0
  -19.0342   17.8845  132.0578 O   0  0  0  0  0  0  0  0  0  0  0  0
  -19.7606   15.8330  133.0290 C   0  0  0  0  0  0  0  0  0  0  0  0
  -19.1273   14.9954  132.3118 O   0  0  0  0  0  0  0  0  0  0  0  0
  -20.1177   15.3946  134.3692 C   0  0  0  0  0  0  0  0  0  0  0  0
  -20.7811   16.1546  135.2467 C   0  0  0  0  0  0  0  0  0  0  0  0
  -21.1601   15.6949  136.5793 C   0  0  0  0  0  0  0  0  0  0  0  0
  -20.1998   15.5025  137.5521 C   0  0  0  0  0  0  0  0  0  0  0  0
  -20.4544   15.0869  138.8412 C   0  0  0  0  0  0  0  0  0  0  0  0
  -21.7570   14.8408  139.2021 C   0  0  0  0  0  0  0  0  0  0  0  0
  -22.7381   15.0161  138.2797 C   0  0  0  0  0  0  0  0  0  0  0  0
  -22.4558   15.4425  136.9661 C   0  0  0  0  0  0  0  0  0  0  0  0
  -23.5680   15.6378  136.0238 C   0  0  0  0  0  0  0  0  0  0  0  0
  -24.0050   17.0908  136.0833 C   0  0  0  0  0  0  0  0  0  0  0  0
  1  2  2  0
  2  3  1  0
  2  4  1  0
  4  5  2  0
  4  6  1  0
  5 11  1  0
  6  7  1  0
  6  8  1  0
  8  9  2  0
  8 10  1  0
 10 11  2  0
 11 12  1  0
 12 13  2  0
 12 17  1  0
 13 14  1  0
 14 15  2  0
 15 16  1  0
 16 17  2  0
 17 18  1  0
 18 19  1  0
M  END
$$$$
