
     RDKit          3D

 19 20  0  0  0  0  0  0  0  0999 V2000
  -17.2475   15.8712  134.0408 O   0  0  0  0  0  0  0  0  0  0  0  0
  -18.2546   15.9669  134.7790 C   0  0  0  0  0  0  0  0  0  0  0  0
  -18.1929   15.4597  136.0598 O   0  0  0  0  0  0  0  0  0  0  0  0
  -19.4536   16.6245  134.2235 C   0  0  0  0  0  0  0  0  0  0  0  0
  -20.4772   16.6359  134.9628 N   0  0  0  0  0  0  0  0  0  0  0  0
  -19.4024   17.2219  132.8781 C   0  0  0  0  0  0  0  0  0  0  0  0
  -18.9396   16.3203  131.9242 O   0  0  0  0  0  0  0  0  0  0  0  0
  -20.6935   17.8134  132.5358 C   0  0  0  0  0  0  0  0  0  0  0  0
  -20.9103   18.3905  131.4237 O   0  0  0  0  0  0  0  0  0  0  0  0
  -21.8096   17.7684  133.4675 C   0  0  0  0  0  0  0  0  0  0  0  0
  -21.7462   17.1977  134.6750 C   0  0  0  0  0  0  0  0  0  0  0  0
  -22.8635   17.1833  135.6143 C   0  0  0  0  0  0  0  0  0  0  0  0
  -24.0544   16.5729  135.2752 C   0  0  0  0  0  0  0  0  0  0  0  0
  -25.1603   16.4913  136.0933 C   0  0  0  0  0  0  0  0  0  0  0  0
  -25.0895   17.0550  137.3442 C   0  0  0  0  0  0  0  0  0  0  0  0
  -23.9384   17.6671  137.7243 C   0  0  0  0  0  0  0  0  0  0  0  0
  -22.8182   17.7389  136.8717 C   0  0  0  0  0  0  0  0  0  0  0  0
  -21.5931   18.3936  137.3553 C   0  0  0  0  0  0  0  0  0  0  0  0
  -20.8637   17.4355  138.2803 C   0  0  0  0  0  0  0  0  0  0  0  0
  1  2  2  0
  2  3  1  0
  2  4  1  0
  4  5  2  0
  4  6  1  0
  5 11  1  0
  6  7  1  0
  6  8  1  0
  8  9  2  0
  8 10  1  0
 10 11  2  0
 11 12  1  0
 12 13  2  0
 12 17  1  0
 13 14  1  0
 14 15  2  0
 15 16  1  0
 16 17  2  0
 17 18  1  0
 18 19  1  0
M  END
$$$$
