
     RDKit          3D

 19 20  0  0  0  0  0  0  0  0999 V2000
  -21.1408   18.3971  131.1837 O   0  0  0  0  0  0  0  0  0  0  0  0
  -21.4378   18.2519  132.3917 C   0  0  0  0  0  0  0  0  0  0  0  0
  -22.5187   18.9409  132.8998 O   0  0  0  0  0  0  0  0  0  0  0  0
  -20.6025   17.3421  133.2000 C   0  0  0  0  0  0  0  0  0  0  0  0
  -20.9442   17.1946  134.4066 N   0  0  0  0  0  0  0  0  0  0  0  0
  -19.4490   16.6662  132.5818 C   0  0  0  0  0  0  0  0  0  0  0  0
  -18.5962   17.5647  131.9475 O   0  0  0  0  0  0  0  0  0  0  0  0
  -18.7719   15.8198  133.5612 C   0  0  0  0  0  0  0  0  0  0  0  0
  -17.7416   15.1310  133.2767 O   0  0  0  0  0  0  0  0  0  0  0  0
  -19.2535   15.7246  134.9305 C   0  0  0  0  0  0  0  0  0  0  0  0
  -20.3212   16.3856  135.3896 C   0  0  0  0  0  0  0  0  0  0  0  0
  -20.8136   16.2608  136.7581 C   0  0  0  0  0  0  0  0  0  0  0  0
  -21.1016   17.3868  137.5031 C   0  0  0  0  0  0  0  0  0  0  0  0
  -21.5840   17.3768  138.7939 C   0  0  0  0  0  0  0  0  0  0  0  0
  -21.8002   16.1632  139.4003 C   0  0  0  0  0  0  0  0  0  0  0  0
  -21.5320   15.0262  138.7078 C   0  0  0  0  0  0  0  0  0  0  0  0
  -21.0393   15.0588  137.3876 C   0  0  0  0  0  0  0  0  0  0  0  0
  -20.7945   13.7902  136.6848 C   0  0  0  0  0  0  0  0  0  0  0  0
  -19.3881   13.3189  137.0098 C   0  0  0  0  0  0  0  0  0  0  0  0
  1  2  2  0
  2  3  1  0
  2  4  1  0
  4  5  2  0
  4  6  1  0
  5 11  1  0
  6  7  1  0
  6  8  1  0
  8  9  2  0
  8 10  1  0
 10 11  2  0
 11 12  1  0
 12 13  2  0
 12 17  1  0
 13 14  1  0
 14 15  2  0
 15 16  1  0
 16 17  2  0
 17 18  1  0
 18 19  1  0
M  END
$$$$
