
     RDKit          3D

 19 20  0  0  0  0  0  0  0  0999 V2000
  -16.5366   17.2284  133.1867 O   0  0  0  0  0  0  0  0  0  0  0  0
  -17.2587   16.7045  134.0656 C   0  0  0  0  0  0  0  0  0  0  0  0
  -16.6571   16.0416  135.1145 O   0  0  0  0  0  0  0  0  0  0  0  0
  -18.7218   16.8339  133.9196 C   0  0  0  0  0  0  0  0  0  0  0  0
  -19.4203   16.3697  134.8636 N   0  0  0  0  0  0  0  0  0  0  0  0
  -19.2823   17.4811  132.7210 C   0  0  0  0  0  0  0  0  0  0  0  0
  -18.7926   16.9175  131.5466 O   0  0  0  0  0  0  0  0  0  0  0  0
  -20.7415   17.4986  132.7891 C   0  0  0  0  0  0  0  0  0  0  0  0
  -21.4649   18.0007  131.8718 O   0  0  0  0  0  0  0  0  0  0  0  0
  -21.4460   16.9326  133.9289 C   0  0  0  0  0  0  0  0  0  0  0  0
  -20.8334   16.3661  134.9736 C   0  0  0  0  0  0  0  0  0  0  0  0
  -21.5486   15.8268  136.1262 C   0  0  0  0  0  0  0  0  0  0  0  0
  -21.6744   14.4626  136.2955 C   0  0  0  0  0  0  0  0  0  0  0  0
  -22.3147   13.8544  137.3534 C   0  0  0  0  0  0  0  0  0  0  0  0
  -22.8762   14.6512  138.3216 C   0  0  0  0  0  0  0  0  0  0  0  0
  -22.7785   16.0002  138.1997 C   0  0  0  0  0  0  0  0  0  0  0  0
  -22.1184   16.6020  137.1093 C   0  0  0  0  0  0  0  0  0  0  0  0
  -22.0257   18.0688  137.0513 C   0  0  0  0  0  0  0  0  0  0  0  0
  -20.7372   18.5008  137.7286 C   0  0  0  0  0  0  0  0  0  0  0  0
  1  2  2  0
  2  3  1  0
  2  4  1  0
  4  5  2  0
  4  6  1  0
  5 11  1  0
  6  7  1  0
  6  8  1  0
  8  9  2  0
  8 10  1  0
 10 11  2  0
 11 12  1  0
 12 13  2  0
 12 17  1  0
 13 14  1  0
 14 15  2  0
 15 16  1  0
 16 17  2  0
 17 18  1  0
 18 19  1  0
M  END
$$$$
