
     RDKit          3D

 19 20  0  0  0  0  0  0  0  0999 V2000
  -21.1972   18.6788  131.4974 O   0  0  0  0  0  0  0  0  0  0  0  0
  -21.3932   18.4084  132.7044 C   0  0  0  0  0  0  0  0  0  0  0  0
  -22.3881   19.0784  133.3846 O   0  0  0  0  0  0  0  0  0  0  0  0
  -20.5377   17.3782  133.3254 C   0  0  0  0  0  0  0  0  0  0  0  0
  -20.8323   17.0463  134.5076 N   0  0  0  0  0  0  0  0  0  0  0  0
  -19.4187   16.8000  132.5618 C   0  0  0  0  0  0  0  0  0  0  0  0
  -18.5809   17.7812  132.0402 O   0  0  0  0  0  0  0  0  0  0  0  0
  -18.7135   15.8068  133.3682 C   0  0  0  0  0  0  0  0  0  0  0  0
  -17.7044   15.1644  132.9370 O   0  0  0  0  0  0  0  0  0  0  0  0
  -19.1407   15.5019  134.7248 C   0  0  0  0  0  0  0  0  0  0  0  0
  -20.1805   16.0897  135.3255 C   0  0  0  0  0  0  0  0  0  0  0  0
  -20.6189   15.7558  136.6773 C   0  0  0  0  0  0  0  0  0  0  0  0
  -21.2805   14.5699  136.9250 C   0  0  0  0  0  0  0  0  0  0  0  0
  -21.7206   14.1555  138.1634 C   0  0  0  0  0  0  0  0  0  0  0  0
  -21.4922   14.9726  139.2440 C   0  0  0  0  0  0  0  0  0  0  0  0
  -20.8444   16.1505  139.0512 C   0  0  0  0  0  0  0  0  0  0  0  0
  -20.4019   16.5552  137.7755 C   0  0  0  0  0  0  0  0  0  0  0  0
  -19.6833   17.8313  137.6401 C   0  0  0  0  0  0  0  0  0  0  0  0
  -20.6972   18.9366  137.4042 C   0  0  0  0  0  0  0  0  0  0  0  0
  1  2  2  0
  2  3  1  0
  2  4  1  0
  4  5  2  0
  4  6  1  0
  5 11  1  0
  6  7  1  0
  6  8  1  0
  8  9  2  0
  8 10  1  0
 10 11  2  0
 11 12  1  0
 12 13  2  0
 12 17  1  0
 13 14  1  0
 14 15  2  0
 15 16  1  0
 16 17  2  0
 17 18  1  0
 18 19  1  0
M  END
$$$$
