
     RDKit          3D

 19 20  0  0  0  0  0  0  0  0999 V2000
  -16.3492   17.6589  133.9520 O   0  0  0  0  0  0  0  0  0  0  0  0
  -17.1280   16.6793  133.9031 C   0  0  0  0  0  0  0  0  0  0  0  0
  -16.6293   15.4182  134.1529 O   0  0  0  0  0  0  0  0  0  0  0  0
  -18.5437   16.9427  133.5788 C   0  0  0  0  0  0  0  0  0  0  0  0
  -19.3800   16.7033  134.4942 N   0  0  0  0  0  0  0  0  0  0  0  0
  -18.9046   17.4598  132.2477 C   0  0  0  0  0  0  0  0  0  0  0  0
  -18.3792   16.6772  131.2239 O   0  0  0  0  0  0  0  0  0  0  0  0
  -20.3504   17.6449  132.1499 C   0  0  0  0  0  0  0  0  0  0  0  0
  -20.9166   18.0792  131.0975 O   0  0  0  0  0  0  0  0  0  0  0  0
  -21.2236   17.3354  133.2713 C   0  0  0  0  0  0  0  0  0  0  0  0
  -20.7867   16.8689  134.4457 C   0  0  0  0  0  0  0  0  0  0  0  0
  -21.6685   16.5887  135.5748 C   0  0  0  0  0  0  0  0  0  0  0  0
  -22.5385   15.5178  135.5338 C   0  0  0  0  0  0  0  0  0  0  0  0
  -23.3982   15.1600  136.5497 C   0  0  0  0  0  0  0  0  0  0  0  0
  -23.4028   15.9158  137.6970 C   0  0  0  0  0  0  0  0  0  0  0  0
  -22.5641   16.9802  137.7854 C   0  0  0  0  0  0  0  0  0  0  0  0
  -21.6920   17.3285  136.7342 C   0  0  0  0  0  0  0  0  0  0  0  0
  -20.7905   18.4780  136.9051 C   0  0  0  0  0  0  0  0  0  0  0  0
  -19.9502   18.2549  138.1500 C   0  0  0  0  0  0  0  0  0  0  0  0
  1  2  2  0
  2  3  1  0
  2  4  1  0
  4  5  2  0
  4  6  1  0
  5 11  1  0
  6  7  1  0
  6  8  1  0
  8  9  2  0
  8 10  1  0
 10 11  2  0
 11 12  1  0
 12 13  2  0
 12 17  1  0
 13 14  1  0
 14 15  2  0
 15 16  1  0
 16 17  2  0
 17 18  1  0
 18 19  1  0
M  END
$$$$
