
     RDKit          3D

 19 20  0  0  0  0  0  0  0  0999 V2000
  -21.5481   18.7943  131.3087 O   0  0  0  0  0  0  0  0  0  0  0  0
  -21.5970   18.6679  132.5537 C   0  0  0  0  0  0  0  0  0  0  0  0
  -22.4863   19.4427  133.2679 O   0  0  0  0  0  0  0  0  0  0  0  0
  -20.6903   17.6863  133.1807 C   0  0  0  0  0  0  0  0  0  0  0  0
  -20.8347   17.5065  134.4222 N   0  0  0  0  0  0  0  0  0  0  0  0
  -19.6940   16.9809  132.3564 C   0  0  0  0  0  0  0  0  0  0  0  0
  -18.9105   17.8620  131.6172 O   0  0  0  0  0  0  0  0  0  0  0  0
  -18.9113   16.0633  133.1806 C   0  0  0  0  0  0  0  0  0  0  0  0
  -17.9818   15.3374  132.7053 O   0  0  0  0  0  0  0  0  0  0  0  0
  -19.1635   15.9358  134.6075 C   0  0  0  0  0  0  0  0  0  0  0  0
  -20.1025   16.6286  135.2602 C   0  0  0  0  0  0  0  0  0  0  0  0
  -20.3671   16.4722  136.6872 C   0  0  0  0  0  0  0  0  0  0  0  0
  -20.3081   17.5616  137.5329 C   0  0  0  0  0  0  0  0  0  0  0  0
  -20.5551   17.5229  138.8881 C   0  0  0  0  0  0  0  0  0  0  0  0
  -20.8863   16.3169  139.4568 C   0  0  0  0  0  0  0  0  0  0  0  0
  -20.9575   15.2155  138.6656 C   0  0  0  0  0  0  0  0  0  0  0  0
  -20.7014   15.2772  137.2809 C   0  0  0  0  0  0  0  0  0  0  0  0
  -20.8215   14.0516  136.4767 C   0  0  0  0  0  0  0  0  0  0  0  0
  -22.0405   14.1771  135.5800 C   0  0  0  0  0  0  0  0  0  0  0  0
  1  2  2  0
  2  3  1  0
  2  4  1  0
  4  5  2  0
  4  6  1  0
  5 11  1  0
  6  7  1  0
  6  8  1  0
  8  9  2  0
  8 10  1  0
 10 11  2  0
 11 12  1  0
 12 13  2  0
 12 17  1  0
 13 14  1  0
 14 15  2  0
 15 16  1  0
 16 17  2  0
 17 18  1  0
 18 19  1  0
M  END
$$$$
