
     RDKit          3D

 19 20  0  0  0  0  0  0  0  0999 V2000
  -20.4802   18.7291  131.0329 O   0  0  0  0  0  0  0  0  0  0  0  0
  -21.1286   18.7000  132.1039 C   0  0  0  0  0  0  0  0  0  0  0  0
  -22.1270   19.6298  132.3042 O   0  0  0  0  0  0  0  0  0  0  0  0
  -20.7781   17.6602  133.0912 C   0  0  0  0  0  0  0  0  0  0  0  0
  -21.5265   17.5778  134.1049 N   0  0  0  0  0  0  0  0  0  0  0  0
  -19.6123   16.7914  132.8550 C   0  0  0  0  0  0  0  0  0  0  0  0
  -18.4593   17.5253  132.5927 O   0  0  0  0  0  0  0  0  0  0  0  0
  -19.4556   15.8422  133.9543 C   0  0  0  0  0  0  0  0  0  0  0  0
  -18.5188   14.9831  133.9904 O   0  0  0  0  0  0  0  0  0  0  0  0
  -20.3799   15.8361  135.0775 C   0  0  0  0  0  0  0  0  0  0  0  0
  -21.4150   16.6748  135.1916 C   0  0  0  0  0  0  0  0  0  0  0  0
  -22.3539   16.6416  136.3088 C   0  0  0  0  0  0  0  0  0  0  0  0
  -23.4466   15.7985  136.2792 C   0  0  0  0  0  0  0  0  0  0  0  0
  -24.3803   15.6811  137.2859 C   0  0  0  0  0  0  0  0  0  0  0  0
  -24.2274   16.4545  138.4111 C   0  0  0  0  0  0  0  0  0  0  0  0
  -23.1674   17.2999  138.4875 C   0  0  0  0  0  0  0  0  0  0  0  0
  -22.2232   17.4042  137.4461 C   0  0  0  0  0  0  0  0  0  0  0  0
  -21.0837   18.3206  137.6039 C   0  0  0  0  0  0  0  0  0  0  0  0
  -21.1179   18.9004  139.0069 C   0  0  0  0  0  0  0  0  0  0  0  0
  1  2  2  0
  2  3  1  0
  2  4  1  0
  4  5  2  0
  4  6  1  0
  5 11  1  0
  6  7  1  0
  6  8  1  0
  8  9  2  0
  8 10  1  0
 10 11  2  0
 11 12  1  0
 12 13  2  0
 12 17  1  0
 13 14  1  0
 14 15  2  0
 15 16  1  0
 16 17  2  0
 17 18  1  0
 18 19  1  0
M  END
$$$$
