
     RDKit          3D

 34 37  0  0  0  0  0  0  0  0999 V2000
  -19.9149    5.2862    0.5298 C   0  0  0  0  0  0  0  0  0  0  0  0
  -14.6959    9.2302   -0.1555 C   0  0  0  0  0  0  0  0  0  0  0  0
  -11.1922    8.9169    0.9907 C   0  0  0  0  0  0  0  0  0  0  0  0
  -26.5826    6.3271   -3.9281 C   0  0  0  0  0  0  0  0  0  0  0  0
  -25.4355    7.0982   -3.3732 C   0  0  0  0  0  0  0  0  0  0  0  0
  -24.1632    6.5711   -3.3930 C   0  0  0  0  0  0  0  0  0  0  0  0
  -23.0948    7.2736   -2.8838 C   0  0  0  0  0  0  0  0  0  0  0  0
  -23.2352    8.5444   -2.3247 C   0  0  0  0  0  0  0  0  0  0  0  0
  -20.4385    8.3838   -1.2656 C   0  0  1  0  0  0  0  0  0  0  0  0
  -19.7377    6.3988   -0.5059 C   0  0  2  0  0  0  0  0  0  0  0  0
  -18.3335    6.8893   -0.3787 C   0  0  1  0  0  0  0  0  0  0  0  0
  -18.0383    8.1504   -1.1438 C   0  0  1  0  0  0  0  0  0  0  0  0
  -15.5681    8.4543   -0.8952 C   0  0  0  0  0  0  0  0  0  0  0  0
  -13.2380    9.2514   -0.1634 C   0  0  0  0  0  0  0  0  0  0  0  0
  -12.5618    8.9015    0.9859 C   0  0  0  0  0  0  0  0  0  0  0  0
  -10.4958    9.2859   -0.1646 C   0  0  0  0  0  0  0  0  0  0  0  0
  -11.1695    9.6312   -1.2991 C   0  0  0  0  0  0  0  0  0  0  0  0
  -12.5552    9.6156   -1.3046 C   0  0  0  0  0  0  0  0  0  0  0  0
  -19.2040    9.1046   -0.8337 C   0  0  1  0  0  0  0  0  0  0  0  0
  -24.5110    9.0633   -2.3088 C   0  0  0  0  0  0  0  0  0  0  0  0
  -25.6012    8.3520   -2.8258 C   0  0  0  0  0  0  0  0  0  0  0  0
  -13.2123    8.5373    2.1291 F   0  0  0  0  0  0  0  0  0  0  0  0
  -10.4533    8.5872    2.0764 F   0  0  0  0  0  0  0  0  0  0  0  0
  -10.5346    9.9953   -2.4390 F   0  0  0  0  0  0  0  0  0  0  0  0
  -13.2172    9.9619   -2.4451 F   0  0  0  0  0  0  0  0  0  0  0  0
  -16.8363    8.7600   -0.5734 N   0  0  0  0  0  0  0  0  0  0  0  0
   -9.0806    9.2979   -0.1469 N   0  0  0  0  0  0  0  0  0  0  0  0
  -15.5024   10.0065    0.6163 N   0  0  0  0  0  0  0  0  0  0  0  0
  -16.7636    9.7032    0.3445 N   0  0  0  0  0  0  0  0  0  0  0  0
  -20.7068    7.3900   -0.3267 O   0  0  0  0  0  0  0  0  0  0  0  0
  -21.0892    4.5885    0.3205 O   0  0  0  0  0  0  0  0  0  0  0  0
  -18.0711    7.0823    0.9808 O   0  0  0  0  0  0  0  0  0  0  0  0
  -19.0096   10.3001   -1.5236 O   0  0  0  0  0  0  0  0  0  0  0  0
  -21.8352    9.4000   -1.6782 S   0  0  0  0  0  0  0  0  0  0  0  0
 10  1  1  1
  1 31  1  0
  2 13  2  0
 14  2  1  0
  2 28  1  0
 15  3  2  0
  3 16  1  0
  3 23  1  0
  5  4  1  0
  6  5  2  0
  5 21  1  0
  7  6  1  0
  8  7  2  0
  8 20  1  0
 34  8  1  0
 19  9  1  0
  9 30  1  0
  9 34  1  1
 11 10  1  0
 10 30  1  0
 12 11  1  0
 11 32  1  1
 12 19  1  0
 12 26  1  1
 13 26  1  0
 14 15  1  0
 14 18  2  0
 15 22  1  0
 16 17  2  0
 16 27  1  0
 17 18  1  0
 17 24  1  0
 18 25  1  0
 19 33  1  6
 20 21  2  0
 26 29  1  0
 28 29  2  0
M  END
$$$$
