
     RDKit          3D

 34 37  0  0  0  0  0  0  0  0999 V2000
  -20.1203    5.3404    0.5304 C   0  0  0  0  0  0  0  0  0  0  0  0
  -14.8590    9.3082   -0.1082 C   0  0  0  0  0  0  0  0  0  0  0  0
  -11.2606    9.0359    0.7075 C   0  0  0  0  0  0  0  0  0  0  0  0
  -26.6113    7.3766   -4.5977 C   0  0  0  0  0  0  0  0  0  0  0  0
  -25.4766    7.9201   -3.8007 C   0  0  0  0  0  0  0  0  0  0  0  0
  -25.7117    8.6599   -2.6630 C   0  0  0  0  0  0  0  0  0  0  0  0
  -24.6720    9.1674   -1.9176 C   0  0  0  0  0  0  0  0  0  0  0  0
  -23.3359    8.9654   -2.2655 C   0  0  0  0  0  0  0  0  0  0  0  0
  -20.6491    8.5757   -1.0013 C   0  0  1  0  0  0  0  0  0  0  0  0
  -19.9598    6.5264   -0.4233 C   0  0  2  0  0  0  0  0  0  0  0  0
  -18.5424    6.9819   -0.3132 C   0  0  1  0  0  0  0  0  0  0  0  0
  -18.2510    8.2932   -0.9904 C   0  0  1  0  0  0  0  0  0  0  0  0
  -15.7763    8.6452   -0.9012 C   0  0  0  0  0  0  0  0  0  0  0  0
  -13.4088    9.3885   -0.2360 C   0  0  0  0  0  0  0  0  0  0  0  0
  -12.6242    8.9660    0.8159 C   0  0  0  0  0  0  0  0  0  0  0  0
  -10.6796    9.5330   -0.4634 C   0  0  0  0  0  0  0  0  0  0  0  0
  -11.4602    9.9498   -1.5013 C   0  0  0  0  0  0  0  0  0  0  0  0
  -12.8399    9.8790   -1.3923 C   0  0  0  0  0  0  0  0  0  0  0  0
  -19.3853    9.2401   -0.5635 C   0  0  1  0  0  0  0  0  0  0  0  0
  -23.1102    8.2249   -3.4047 C   0  0  0  0  0  0  0  0  0  0  0  0
  -24.1651    7.7065   -4.1664 C   0  0  0  0  0  0  0  0  0  0  0  0
  -13.1607    8.4765    1.9715 F   0  0  0  0  0  0  0  0  0  0  0  0
  -10.4198    8.6415    1.6930 F   0  0  0  0  0  0  0  0  0  0  0  0
  -10.9389   10.4382   -2.6523 F   0  0  0  0  0  0  0  0  0  0  0  0
  -13.6094   10.2977   -2.4369 F   0  0  0  0  0  0  0  0  0  0  0  0
  -17.0168    8.8366   -0.4219 N   0  0  0  0  0  0  0  0  0  0  0  0
   -9.2694    9.6002   -0.5631 N   0  0  0  0  0  0  0  0  0  0  0  0
  -15.6101    9.8989    0.8592 N   0  0  0  0  0  0  0  0  0  0  0  0
  -16.8832    9.5999    0.6445 N   0  0  0  0  0  0  0  0  0  0  0  0
  -20.9017    7.5170   -0.1315 O   0  0  0  0  0  0  0  0  0  0  0  0
  -21.2718    4.6277    0.2550 O   0  0  0  0  0  0  0  0  0  0  0  0
  -18.2258    7.0651    1.0460 O   0  0  0  0  0  0  0  0  0  0  0  0
  -19.1931   10.4819   -1.1669 O   0  0  0  0  0  0  0  0  0  0  0  0
  -22.0398    9.6440   -1.2808 S   0  0  0  0  0  0  0  0  0  0  0  0
 10  1  1  1
  1 31  1  0
  2 13  2  0
 14  2  1  0
  2 28  1  0
 15  3  2  0
  3 16  1  0
  3 23  1  0
  5  4  1  0
  6  5  2  0
  5 21  1  0
  7  6  1  0
  8  7  2  0
  8 20  1  0
 34  8  1  0
 19  9  1  0
  9 30  1  0
  9 34  1  1
 11 10  1  0
 10 30  1  0
 12 11  1  0
 11 32  1  1
 12 19  1  0
 12 26  1  1
 13 26  1  0
 14 15  1  0
 14 18  2  0
 15 22  1  0
 16 17  2  0
 16 27  1  0
 17 18  1  0
 17 24  1  0
 18 25  1  0
 19 33  1  6
 20 21  2  0
 26 29  1  0
 28 29  2  0
M  END
$$$$
