
     RDKit          3D

 34 37  0  0  0  0  0  0  0  0999 V2000
  -20.5445    5.0174   -0.9743 C   0  0  0  0  0  0  0  0  0  0  0  0
  -14.6268    8.4307   -0.4096 C   0  0  0  0  0  0  0  0  0  0  0  0
  -11.5052    9.8146   -1.8337 C   0  0  0  0  0  0  0  0  0  0  0  0
  -26.7715   10.7260   -1.8336 C   0  0  0  0  0  0  0  0  0  0  0  0
  -25.4759   10.4676   -1.1457 C   0  0  0  0  0  0  0  0  0  0  0  0
  -24.4611    9.7987   -1.7935 C   0  0  0  0  0  0  0  0  0  0  0  0
  -23.2591    9.5541   -1.1691 C   0  0  0  0  0  0  0  0  0  0  0  0
  -23.0008    9.9635    0.1396 C   0  0  0  0  0  0  0  0  0  0  0  0
  -20.3936    8.4956    0.0118 C   0  0  1  0  0  0  0  0  0  0  0  0
  -20.2273    6.5139   -1.0150 C   0  0  2  0  0  0  0  0  0  0  0  0
  -18.7436    6.6395   -1.1214 C   0  0  1  0  0  0  0  0  0  0  0  0
  -18.2171    8.0352   -0.9271 C   0  0  1  0  0  0  0  0  0  0  0  0
  -15.8525    8.8497   -0.8914 C   0  0  0  0  0  0  0  0  0  0  0  0
  -13.3239    9.0789   -0.4995 C   0  0  0  0  0  0  0  0  0  0  0  0
  -12.7288    9.2069   -1.7365 C   0  0  0  0  0  0  0  0  0  0  0  0
  -10.8736   10.2970   -0.6830 C   0  0  0  0  0  0  0  0  0  0  0  0
  -11.4665   10.1678    0.5385 C   0  0  0  0  0  0  0  0  0  0  0  0
  -12.7046    9.5534    0.6375 C   0  0  0  0  0  0  0  0  0  0  0  0
  -18.9348    8.5778    0.3203 C   0  0  1  0  0  0  0  0  0  0  0  0
  -24.0214   10.6313    0.7797 C   0  0  0  0  0  0  0  0  0  0  0  0
  -25.2461   10.8824    0.1483 C   0  0  0  0  0  0  0  0  0  0  0  0
  -13.3190    8.7464   -2.8776 F   0  0  0  0  0  0  0  0  0  0  0  0
  -10.8538    9.9803   -3.0093 F   0  0  0  0  0  0  0  0  0  0  0  0
  -10.8897   10.6200    1.6777 F   0  0  0  0  0  0  0  0  0  0  0  0
  -13.2875    9.4311    1.8639 F   0  0  0  0  0  0  0  0  0  0  0  0
  -16.7969    7.9442   -0.5856 N   0  0  0  0  0  0  0  0  0  0  0  0
   -9.6093   10.9228   -0.7967 N   0  0  0  0  0  0  0  0  0  0  0  0
  -14.8874    7.2401    0.1932 N   0  0  0  0  0  0  0  0  0  0  0  0
  -16.1814    6.9812    0.0711 N   0  0  0  0  0  0  0  0  0  0  0  0
  -20.7762    7.1585    0.0972 O   0  0  0  0  0  0  0  0  0  0  0  0
  -21.8201    4.7621   -1.4406 O   0  0  0  0  0  0  0  0  0  0  0  0
  -18.1744    5.7782   -0.1787 O   0  0  0  0  0  0  0  0  0  0  0  0
  -18.5080    9.8832    0.5593 O   0  0  0  0  0  0  0  0  0  0  0  0
  -21.4464    9.6183    0.8976 S   0  0  0  0  0  0  0  0  0  0  0  0
 10  1  1  1
  1 31  1  0
  2 13  2  0
 14  2  1  0
  2 28  1  0
 15  3  2  0
  3 16  1  0
  3 23  1  0
  5  4  1  0
  6  5  2  0
  5 21  1  0
  7  6  1  0
  8  7  2  0
  8 20  1  0
 34  8  1  0
 19  9  1  0
  9 30  1  0
  9 34  1  1
 11 10  1  0
 10 30  1  0
 12 11  1  0
 11 32  1  1
 12 19  1  0
 12 26  1  1
 13 26  1  0
 14 15  1  0
 14 18  2  0
 15 22  1  0
 16 17  2  0
 16 27  1  0
 17 18  1  0
 17 24  1  0
 18 25  1  0
 19 33  1  6
 20 21  2  0
 26 29  1  0
 28 29  2  0
M  END
$$$$
