
     RDKit          3D

 34 37  0  0  0  0  0  0  0  0999 V2000
  -20.1533    4.9810    0.2282 C   0  0  0  0  0  0  0  0  0  0  0  0
  -14.8605    9.2135   -0.2020 C   0  0  0  0  0  0  0  0  0  0  0  0
  -11.1720    9.3743    0.0362 C   0  0  0  0  0  0  0  0  0  0  0  0
  -26.9701    8.5887    0.6210 C   0  0  0  0  0  0  0  0  0  0  0  0
  -25.6708    8.7205   -0.0952 C   0  0  0  0  0  0  0  0  0  0  0  0
  -25.3110    7.8109   -1.0648 C   0  0  0  0  0  0  0  0  0  0  0  0
  -24.1135    7.9218   -1.7342 C   0  0  0  0  0  0  0  0  0  0  0  0
  -23.2051    8.9485   -1.4737 C   0  0  0  0  0  0  0  0  0  0  0  0
  -20.3713    8.0147   -1.7318 C   0  0  1  0  0  0  0  0  0  0  0  0
  -19.8205    6.0476   -0.8174 C   0  0  2  0  0  0  0  0  0  0  0  0
  -18.4313    6.5143   -0.5330 C   0  0  1  0  0  0  0  0  0  0  0  0
  -18.0116    7.7379   -1.3010 C   0  0  1  0  0  0  0  0  0  0  0  0
  -15.6902    8.6579   -1.1574 C   0  0  0  0  0  0  0  0  0  0  0  0
  -13.4929    9.7020   -0.3317 C   0  0  0  0  0  0  0  0  0  0  0  0
  -12.4611    8.9264    0.1527 C   0  0  0  0  0  0  0  0  0  0  0  0
  -10.9155   10.6083   -0.5699 C   0  0  0  0  0  0  0  0  0  0  0  0
  -11.9398   11.3719   -1.0474 C   0  0  0  0  0  0  0  0  0  0  0  0
  -13.2442   10.9191   -0.9300 C   0  0  0  0  0  0  0  0  0  0  0  0
  -19.1826    8.7270   -1.1751 C   0  0  1  0  0  0  0  0  0  0  0  0
  -23.5730    9.8531   -0.5024 C   0  0  0  0  0  0  0  0  0  0  0  0
  -24.7905    9.7441    0.1813 C   0  0  0  0  0  0  0  0  0  0  0  0
  -12.6786    7.7184    0.7493 F   0  0  0  0  0  0  0  0  0  0  0  0
  -10.1031    8.6744    0.4847 F   0  0  0  0  0  0  0  0  0  0  0  0
  -11.7359   12.5727   -1.6404 F   0  0  0  0  0  0  0  0  0  0  0  0
  -14.2594   11.6910   -1.4121 F   0  0  0  0  0  0  0  0  0  0  0  0
  -16.8753    8.3453   -0.6069 N   0  0  0  0  0  0  0  0  0  0  0  0
   -9.5791   11.0601   -0.6842 N   0  0  0  0  0  0  0  0  0  0  0  0
  -15.6056    9.2157    0.9354 N   0  0  0  0  0  0  0  0  0  0  0  0
  -16.7931    8.6951    0.6613 N   0  0  0  0  0  0  0  0  0  0  0  0
  -20.7793    7.0645   -0.7980 O   0  0  0  0  0  0  0  0  0  0  0  0
  -21.1091    4.1000   -0.2408 O   0  0  0  0  0  0  0  0  0  0  0  0
  -18.3358    6.7560    0.8407 O   0  0  0  0  0  0  0  0  0  0  0  0
  -18.8738    9.8900   -1.8788 O   0  0  0  0  0  0  0  0  0  0  0  0
  -21.6797    9.0416   -2.3538 S   0  0  0  0  0  0  0  0  0  0  0  0
 10  1  1  1
  1 31  1  0
  2 13  2  0
 14  2  1  0
  2 28  1  0
 15  3  2  0
  3 16  1  0
  3 23  1  0
  5  4  1  0
  6  5  2  0
  5 21  1  0
  7  6  1  0
  8  7  2  0
  8 20  1  0
 34  8  1  0
 19  9  1  0
  9 30  1  0
  9 34  1  1
 11 10  1  0
 10 30  1  0
 12 11  1  0
 11 32  1  1
 12 19  1  0
 12 26  1  1
 13 26  1  0
 14 15  1  0
 14 18  2  0
 15 22  1  0
 16 17  2  0
 16 27  1  0
 17 18  1  0
 17 24  1  0
 18 25  1  0
 19 33  1  6
 20 21  2  0
 26 29  1  0
 28 29  2  0
M  END
$$$$
