
     RDKit          3D

 34 37  0  0  0  0  0  0  0  0999 V2000
  -19.8920    5.4550    0.6196 C   0  0  0  0  0  0  0  0  0  0  0  0
  -14.9225    8.9958   -0.8156 C   0  0  0  0  0  0  0  0  0  0  0  0
  -11.9560    9.0283    1.3949 C   0  0  0  0  0  0  0  0  0  0  0  0
  -26.9791    6.3203   -3.7883 C   0  0  0  0  0  0  0  0  0  0  0  0
  -25.8151    7.0804   -3.2538 C   0  0  0  0  0  0  0  0  0  0  0  0
  -24.5284    6.6647   -3.5155 C   0  0  0  0  0  0  0  0  0  0  0  0
  -23.4443    7.3584   -3.0278 C   0  0  0  0  0  0  0  0  0  0  0  0
  -23.5825    8.5084   -2.2497 C   0  0  0  0  0  0  0  0  0  0  0  0
  -20.7197    8.3519   -1.3845 C   0  0  1  0  0  0  0  0  0  0  0  0
  -19.9041    6.4422   -0.5497 C   0  0  2  0  0  0  0  0  0  0  0  0
  -18.4972    6.9028   -0.7422 C   0  0  1  0  0  0  0  0  0  0  0  0
  -18.3413    8.0638   -1.6860 C   0  0  1  0  0  0  0  0  0  0  0  0
  -15.9557    8.0857   -0.9349 C   0  0  0  0  0  0  0  0  0  0  0  0
  -13.5597    8.7950   -0.3380 C   0  0  0  0  0  0  0  0  0  0  0  0
  -13.2329    9.2122    0.9347 C   0  0  0  0  0  0  0  0  0  0  0  0
  -11.0001    8.4223    0.5735 C   0  0  0  0  0  0  0  0  0  0  0  0
  -11.3284    8.0114   -0.6850 C   0  0  0  0  0  0  0  0  0  0  0  0
  -12.6202    8.1969   -1.1509 C   0  0  0  0  0  0  0  0  0  0  0  0
  -19.4202    9.0794   -1.2739 C   0  0  1  0  0  0  0  0  0  0  0  0
  -24.8728    8.9164   -1.9927 C   0  0  0  0  0  0  0  0  0  0  0  0
  -25.9789    8.2136   -2.4869 C   0  0  0  0  0  0  0  0  0  0  0  0
  -14.1426    9.8069    1.7602 F   0  0  0  0  0  0  0  0  0  0  0  0
  -11.5541    9.4085    2.6308 F   0  0  0  0  0  0  0  0  0  0  0  0
  -10.4337    7.4210   -1.5132 F   0  0  0  0  0  0  0  0  0  0  0  0
  -12.9364    7.7809   -2.4103 F   0  0  0  0  0  0  0  0  0  0  0  0
  -17.0487    8.6970   -1.4217 N   0  0  0  0  0  0  0  0  0  0  0  0
   -9.6840    8.2381    1.0606 N   0  0  0  0  0  0  0  0  0  0  0  0
  -15.4516   10.1698   -1.2523 N   0  0  0  0  0  0  0  0  0  0  0  0
  -16.7118    9.9584   -1.6036 N   0  0  0  0  0  0  0  0  0  0  0  0
  -20.8142    7.4746   -0.3061 O   0  0  0  0  0  0  0  0  0  0  0  0
  -20.8847    4.5034    0.4828 O   0  0  0  0  0  0  0  0  0  0  0  0
  -17.9821    7.2356    0.5142 O   0  0  0  0  0  0  0  0  0  0  0  0
  -19.3497   10.1864   -2.1182 O   0  0  0  0  0  0  0  0  0  0  0  0
  -22.1610    9.3568   -1.6418 S   0  0  0  0  0  0  0  0  0  0  0  0
 10  1  1  1
  1 31  1  0
  2 13  2  0
 14  2  1  0
  2 28  1  0
 15  3  2  0
  3 16  1  0
  3 23  1  0
  5  4  1  0
  6  5  2  0
  5 21  1  0
  7  6  1  0
  8  7  2  0
  8 20  1  0
 34  8  1  0
 19  9  1  0
  9 30  1  0
  9 34  1  1
 11 10  1  0
 10 30  1  0
 12 11  1  0
 11 32  1  1
 12 19  1  0
 12 26  1  1
 13 26  1  0
 14 15  1  0
 14 18  2  0
 15 22  1  0
 16 17  2  0
 16 27  1  0
 17 18  1  0
 17 24  1  0
 18 25  1  0
 19 33  1  6
 20 21  2  0
 26 29  1  0
 28 29  2  0
M  END
$$$$
