
     RDKit          3D

 34 37  0  0  0  0  0  0  0  0999 V2000
  -20.5953    5.0054   -0.8095 C   0  0  0  0  0  0  0  0  0  0  0  0
  -14.8957    8.7536   -0.4508 C   0  0  0  0  0  0  0  0  0  0  0  0
  -11.6479   10.3710    0.2726 C   0  0  0  0  0  0  0  0  0  0  0  0
  -26.9941   10.2175   -2.9413 C   0  0  0  0  0  0  0  0  0  0  0  0
  -25.7526   10.1167   -2.1247 C   0  0  0  0  0  0  0  0  0  0  0  0
  -24.6141    9.5468   -2.6499 C   0  0  0  0  0  0  0  0  0  0  0  0
  -23.4604    9.4481   -1.9058 C   0  0  0  0  0  0  0  0  0  0  0  0
  -23.3769    9.9131   -0.5929 C   0  0  0  0  0  0  0  0  0  0  0  0
  -20.7038    8.5896   -0.3251 C   0  0  1  0  0  0  0  0  0  0  0  0
  -20.3571    6.4987   -1.0441 C   0  0  2  0  0  0  0  0  0  0  0  0
  -18.8785    6.7023   -1.0721 C   0  0  1  0  0  0  0  0  0  0  0  0
  -18.4433    8.1421   -1.0467 C   0  0  1  0  0  0  0  0  0  0  0  0
  -16.0873    8.9792   -1.1134 C   0  0  0  0  0  0  0  0  0  0  0  0
  -13.5905    9.3713   -0.6526 C   0  0  0  0  0  0  0  0  0  0  0  0
  -12.8756    9.7899    0.4493 C   0  0  0  0  0  0  0  0  0  0  0  0
  -11.1336   10.5338   -1.0176 C   0  0  0  0  0  0  0  0  0  0  0  0
  -11.8450   10.1180   -2.1046 C   0  0  0  0  0  0  0  0  0  0  0  0
  -13.0870    9.5298   -1.9264 C   0  0  0  0  0  0  0  0  0  0  0  0
  -19.2777    8.8067    0.0613 C   0  0  1  0  0  0  0  0  0  0  0  0
  -24.5202   10.4811   -0.0759 C   0  0  0  0  0  0  0  0  0  0  0  0
  -25.6964   10.5836   -0.8293 C   0  0  0  0  0  0  0  0  0  0  0  0
  -13.3500    9.6455    1.7208 F   0  0  0  0  0  0  0  0  0  0  0  0
  -10.8826   10.8084    1.3005 F   0  0  0  0  0  0  0  0  0  0  0  0
  -11.3846   10.2571   -3.3710 F   0  0  0  0  0  0  0  0  0  0  0  0
  -13.7879    9.1174   -3.0206 F   0  0  0  0  0  0  0  0  0  0  0  0
  -17.0488    8.1901   -0.6053 N   0  0  0  0  0  0  0  0  0  0  0  0
   -9.8639   11.1358   -1.1870 N   0  0  0  0  0  0  0  0  0  0  0  0
  -15.1943    7.7983    0.4696 N   0  0  0  0  0  0  0  0  0  0  0  0
  -16.4770    7.4867    0.3516 N   0  0  0  0  0  0  0  0  0  0  0  0
  -21.0190    7.2559   -0.0735 O   0  0  0  0  0  0  0  0  0  0  0  0
  -21.8430    4.6195   -1.2612 O   0  0  0  0  0  0  0  0  0  0  0  0
  -18.3335    6.0189    0.0190 O   0  0  0  0  0  0  0  0  0  0  0  0
  -18.9403   10.1571    0.1374 O   0  0  0  0  0  0  0  0  0  0  0  0
  -21.8769    9.7557    0.3211 S   0  0  0  0  0  0  0  0  0  0  0  0
 10  1  1  1
  1 31  1  0
  2 13  2  0
 14  2  1  0
  2 28  1  0
 15  3  2  0
  3 16  1  0
  3 23  1  0
  5  4  1  0
  6  5  2  0
  5 21  1  0
  7  6  1  0
  8  7  2  0
  8 20  1  0
 34  8  1  0
 19  9  1  0
  9 30  1  0
  9 34  1  1
 11 10  1  0
 10 30  1  0
 12 11  1  0
 11 32  1  1
 12 19  1  0
 12 26  1  1
 13 26  1  0
 14 15  1  0
 14 18  2  0
 15 22  1  0
 16 17  2  0
 16 27  1  0
 17 18  1  0
 17 24  1  0
 18 25  1  0
 19 33  1  6
 20 21  2  0
 26 29  1  0
 28 29  2  0
M  END
$$$$
