
     RDKit          3D

 34 37  0  0  0  0  0  0  0  0999 V2000
  -20.4547    4.6983   -0.8330 C   0  0  0  0  0  0  0  0  0  0  0  0
  -14.7046    8.3948   -0.3040 C   0  0  0  0  0  0  0  0  0  0  0  0
  -11.5798    9.8132   -1.6865 C   0  0  0  0  0  0  0  0  0  0  0  0
  -26.7603   10.3944   -2.6671 C   0  0  0  0  0  0  0  0  0  0  0  0
  -25.5066   10.1357   -1.9056 C   0  0  0  0  0  0  0  0  0  0  0  0
  -24.8227   11.1728   -1.3110 C   0  0  0  0  0  0  0  0  0  0  0  0
  -23.6634   10.9470   -0.6043 C   0  0  0  0  0  0  0  0  0  0  0  0
  -23.1194    9.6713   -0.4506 C   0  0  0  0  0  0  0  0  0  0  0  0
  -20.4832    8.2667   -0.2342 C   0  0  1  0  0  0  0  0  0  0  0  0
  -20.1865    6.1930   -1.0221 C   0  0  2  0  0  0  0  0  0  0  0  0
  -18.7041    6.3663   -1.0556 C   0  0  1  0  0  0  0  0  0  0  0  0
  -18.2383    7.7951   -0.9880 C   0  0  1  0  0  0  0  0  0  0  0  0
  -15.9126    8.7110   -0.8960 C   0  0  0  0  0  0  0  0  0  0  0  0
  -13.4237    9.0870   -0.3820 C   0  0  0  0  0  0  0  0  0  0  0  0
  -12.7833    9.1649   -1.6004 C   0  0  0  0  0  0  0  0  0  0  0  0
  -11.0143   10.3870   -0.5434 C   0  0  0  0  0  0  0  0  0  0  0  0
  -11.6520   10.3070    0.6597 C   0  0  0  0  0  0  0  0  0  0  0  0
  -12.8697    9.6515    0.7474 C   0  0  0  0  0  0  0  0  0  0  0  0
  -19.0500    8.4413    0.1472 C   0  0  1  0  0  0  0  0  0  0  0  0
  -23.8097    8.6405   -1.0489 C   0  0  0  0  0  0  0  0  0  0  0  0
  -24.9898    8.8656   -1.7689 C   0  0  0  0  0  0  0  0  0  0  0  0
  -13.3086    8.6152   -2.7337 F   0  0  0  0  0  0  0  0  0  0  0  0
  -10.8871    9.9346   -2.8437 F   0  0  0  0  0  0  0  0  0  0  0  0
  -11.1396   10.8479    1.7911 F   0  0  0  0  0  0  0  0  0  0  0  0
  -13.4978    9.5791    1.9554 F   0  0  0  0  0  0  0  0  0  0  0  0
  -16.8398    7.7997   -0.5567 N   0  0  0  0  0  0  0  0  0  0  0  0
   -9.7702   11.0540   -0.6454 N   0  0  0  0  0  0  0  0  0  0  0  0
  -14.9577    7.2586    0.3989 N   0  0  0  0  0  0  0  0  0  0  0  0
  -16.2309    6.9331    0.2281 N   0  0  0  0  0  0  0  0  0  0  0  0
  -20.8249    6.9326   -0.0225 O   0  0  0  0  0  0  0  0  0  0  0  0
  -21.7643    4.3811   -1.1392 O   0  0  0  0  0  0  0  0  0  0  0  0
  -18.1657    5.6370    0.0088 O   0  0  0  0  0  0  0  0  0  0  0  0
  -18.6834    9.7812    0.2634 O   0  0  0  0  0  0  0  0  0  0  0  0
  -21.6264    9.4360    0.4581 S   0  0  0  0  0  0  0  0  0  0  0  0
 10  1  1  1
  1 31  1  0
  2 13  2  0
 14  2  1  0
  2 28  1  0
 15  3  2  0
  3 16  1  0
  3 23  1  0
  5  4  1  0
  6  5  2  0
  5 21  1  0
  7  6  1  0
  8  7  2  0
  8 20  1  0
 34  8  1  0
 19  9  1  0
  9 30  1  0
  9 34  1  1
 11 10  1  0
 10 30  1  0
 12 11  1  0
 11 32  1  1
 12 19  1  0
 12 26  1  1
 13 26  1  0
 14 15  1  0
 14 18  2  0
 15 22  1  0
 16 17  2  0
 16 27  1  0
 17 18  1  0
 17 24  1  0
 18 25  1  0
 19 33  1  6
 20 21  2  0
 26 29  1  0
 28 29  2  0
M  END
$$$$
