
     RDKit          3D

 34 37  0  0  0  0  0  0  0  0999 V2000
  -20.2997    4.7102   -0.5748 C   0  0  0  0  0  0  0  0  0  0  0  0
  -14.6208    8.5171   -0.1451 C   0  0  0  0  0  0  0  0  0  0  0  0
  -11.3224    9.5660   -1.4522 C   0  0  0  0  0  0  0  0  0  0  0  0
  -26.7937    9.3810   -3.4207 C   0  0  0  0  0  0  0  0  0  0  0  0
  -25.5130    9.4108   -2.6609 C   0  0  0  0  0  0  0  0  0  0  0  0
  -25.3447   10.2816   -1.6073 C   0  0  0  0  0  0  0  0  0  0  0  0
  -24.1664   10.3187   -0.8970 C   0  0  0  0  0  0  0  0  0  0  0  0
  -23.0869    9.4874   -1.1981 C   0  0  0  0  0  0  0  0  0  0  0  0
  -20.3874    8.3273   -0.6184 C   0  0  1  0  0  0  0  0  0  0  0  0
  -20.0125    6.1533   -0.9953 C   0  0  2  0  0  0  0  0  0  0  0  0
  -18.5344    6.3438   -0.9080 C   0  0  1  0  0  0  0  0  0  0  0  0
  -18.0771    7.7703   -1.0456 C   0  0  1  0  0  0  0  0  0  0  0  0
  -15.7548    8.6903   -0.9157 C   0  0  0  0  0  0  0  0  0  0  0  0
  -13.3247    9.1782   -0.2399 C   0  0  0  0  0  0  0  0  0  0  0  0
  -12.5417    8.9501   -1.3514 C   0  0  0  0  0  0  0  0  0  0  0  0
  -10.8851   10.4162   -0.4317 C   0  0  0  0  0  0  0  0  0  0  0  0
  -11.6635   10.6386    0.6660 C   0  0  0  0  0  0  0  0  0  0  0  0
  -12.8973   10.0159    0.7684 C   0  0  0  0  0  0  0  0  0  0  0  0
  -19.0010    8.5909   -0.1300 C   0  0  1  0  0  0  0  0  0  0  0  0
  -23.2640    8.6202   -2.2534 C   0  0  0  0  0  0  0  0  0  0  0  0
  -24.4612    8.5791   -2.9791 C   0  0  0  0  0  0  0  0  0  0  0  0
  -12.9399    8.1260   -2.3638 F   0  0  0  0  0  0  0  0  0  0  0  0
  -10.4938    9.3959   -2.5097 F   0  0  0  0  0  0  0  0  0  0  0  0
  -11.2782   11.4535    1.6772 F   0  0  0  0  0  0  0  0  0  0  0  0
  -13.6667   10.2470    1.8700 F   0  0  0  0  0  0  0  0  0  0  0  0
  -16.7305    7.8746   -0.4820 N   0  0  0  0  0  0  0  0  0  0  0  0
   -9.6232   11.0466   -0.5476 N   0  0  0  0  0  0  0  0  0  0  0  0
  -14.9680    7.5649    0.7614 N   0  0  0  0  0  0  0  0  0  0  0  0
  -16.2233    7.2060    0.5345 N   0  0  0  0  0  0  0  0  0  0  0  0
  -20.7500    7.0450   -0.2114 O   0  0  0  0  0  0  0  0  0  0  0  0
  -21.5921    4.3418   -0.8968 O   0  0  0  0  0  0  0  0  0  0  0  0
  -18.1090    5.8214    0.3170 O   0  0  0  0  0  0  0  0  0  0  0  0
  -18.6474    9.9366   -0.2145 O   0  0  0  0  0  0  0  0  0  0  0  0
  -21.5951    9.5795   -0.2621 S   0  0  0  0  0  0  0  0  0  0  0  0
 10  1  1  1
  1 31  1  0
  2 13  2  0
 14  2  1  0
  2 28  1  0
 15  3  2  0
  3 16  1  0
  3 23  1  0
  5  4  1  0
  6  5  2  0
  5 21  1  0
  7  6  1  0
  8  7  2  0
  8 20  1  0
 34  8  1  0
 19  9  1  0
  9 30  1  0
  9 34  1  1
 11 10  1  0
 10 30  1  0
 12 11  1  0
 11 32  1  1
 12 19  1  0
 12 26  1  1
 13 26  1  0
 14 15  1  0
 14 18  2  0
 15 22  1  0
 16 17  2  0
 16 27  1  0
 17 18  1  0
 17 24  1  0
 18 25  1  0
 19 33  1  6
 20 21  2  0
 26 29  1  0
 28 29  2  0
M  END
$$$$
