
     RDKit          3D

 34 37  0  0  0  0  0  0  0  0999 V2000
  -20.2832    5.1510    0.3967 C   0  0  0  0  0  0  0  0  0  0  0  0
  -14.8035    9.0519   -0.3020 C   0  0  0  0  0  0  0  0  0  0  0  0
  -11.8875   10.8140   -1.7442 C   0  0  0  0  0  0  0  0  0  0  0  0
  -26.3513    8.2342   -4.8566 C   0  0  0  0  0  0  0  0  0  0  0  0
  -25.2726    8.6238   -3.9063 C   0  0  0  0  0  0  0  0  0  0  0  0
  -24.4916    7.6633   -3.3026 C   0  0  0  0  0  0  0  0  0  0  0  0
  -23.4914    8.0102   -2.4230 C   0  0  0  0  0  0  0  0  0  0  0  0
  -23.2130    9.3376   -2.0951 C   0  0  0  0  0  0  0  0  0  0  0  0
  -20.6155    8.5358   -0.8384 C   0  0  1  0  0  0  0  0  0  0  0  0
  -20.0708    6.3973   -0.4655 C   0  0  2  0  0  0  0  0  0  0  0  0
  -18.6171    6.7298   -0.3954 C   0  0  1  0  0  0  0  0  0  0  0  0
  -18.2511    8.0669   -0.9794 C   0  0  1  0  0  0  0  0  0  0  0  0
  -15.8384    8.7042   -1.1494 C   0  0  0  0  0  0  0  0  0  0  0  0
  -13.4230    9.3992   -0.6173 C   0  0  0  0  0  0  0  0  0  0  0  0
  -13.1802   10.4776   -1.4412 C   0  0  0  0  0  0  0  0  0  0  0  0
  -10.8310   10.0641   -1.2177 C   0  0  0  0  0  0  0  0  0  0  0  0
  -11.0765    8.9980   -0.4031 C   0  0  0  0  0  0  0  0  0  0  0  0
  -12.3842    8.6574   -0.0961 C   0  0  0  0  0  0  0  0  0  0  0  0
  -19.2822    9.0599   -0.4170 C   0  0  1  0  0  0  0  0  0  0  0  0
  -23.9991   10.2911   -2.7032 C   0  0  0  0  0  0  0  0  0  0  0  0
  -25.0181    9.9428   -3.5989 C   0  0  0  0  0  0  0  0  0  0  0  0
  -14.1891   11.2287   -1.9708 F   0  0  0  0  0  0  0  0  0  0  0  0
  -11.5637   11.8574   -2.5441 F   0  0  0  0  0  0  0  0  0  0  0  0
  -10.0833    8.2448    0.1273 F   0  0  0  0  0  0  0  0  0  0  0  0
  -12.6167    7.5903    0.7201 F   0  0  0  0  0  0  0  0  0  0  0  0
  -16.9509    8.4622   -0.4360 N   0  0  0  0  0  0  0  0  0  0  0  0
   -9.4997   10.4218   -1.5384 N   0  0  0  0  0  0  0  0  0  0  0  0
  -15.3519    9.0049    0.9414 N   0  0  0  0  0  0  0  0  0  0  0  0
  -16.6244    8.6527    0.8268 N   0  0  0  0  0  0  0  0  0  0  0  0
  -20.9132    7.4301   -0.0445 O   0  0  0  0  0  0  0  0  0  0  0  0
  -21.3338    4.3875   -0.0756 O   0  0  0  0  0  0  0  0  0  0  0  0
  -18.2311    6.6725    0.9471 O   0  0  0  0  0  0  0  0  0  0  0  0
  -19.0171   10.3295   -0.9278 O   0  0  0  0  0  0  0  0  0  0  0  0
  -21.9253    9.7292   -0.9556 S   0  0  0  0  0  0  0  0  0  0  0  0
 10  1  1  1
  1 31  1  0
  2 13  2  0
 14  2  1  0
  2 28  1  0
 15  3  2  0
  3 16  1  0
  3 23  1  0
  5  4  1  0
  6  5  2  0
  5 21  1  0
  7  6  1  0
  8  7  2  0
  8 20  1  0
 34  8  1  0
 19  9  1  0
  9 30  1  0
  9 34  1  1
 11 10  1  0
 10 30  1  0
 12 11  1  0
 11 32  1  1
 12 19  1  0
 12 26  1  1
 13 26  1  0
 14 15  1  0
 14 18  2  0
 15 22  1  0
 16 17  2  0
 16 27  1  0
 17 18  1  0
 17 24  1  0
 18 25  1  0
 19 33  1  6
 20 21  2  0
 26 29  1  0
 28 29  2  0
M  END
$$$$
