
     RDKit          3D

 34 37  0  0  0  0  0  0  0  0999 V2000
  -19.6743    5.0233    0.7042 C   0  0  0  0  0  0  0  0  0  0  0  0
  -14.6420    8.9314   -0.2385 C   0  0  0  0  0  0  0  0  0  0  0  0
  -11.0419    8.8700   -1.0890 C   0  0  0  0  0  0  0  0  0  0  0  0
  -25.7886    6.5404   -5.3301 C   0  0  0  0  0  0  0  0  0  0  0  0
  -24.8508    7.1653   -4.3562 C   0  0  0  0  0  0  0  0  0  0  0  0
  -23.4904    6.9946   -4.4867 C   0  0  0  0  0  0  0  0  0  0  0  0
  -22.6133    7.5671   -3.5937 C   0  0  0  0  0  0  0  0  0  0  0  0
  -23.0445    8.3439   -2.5177 C   0  0  0  0  0  0  0  0  0  0  0  0
  -20.4274    8.0759   -1.0867 C   0  0  1  0  0  0  0  0  0  0  0  0
  -19.6132    6.1223   -0.3589 C   0  0  2  0  0  0  0  0  0  0  0  0
  -18.2169    6.6505   -0.3562 C   0  0  1  0  0  0  0  0  0  0  0  0
  -18.0199    7.9057   -1.1616 C   0  0  1  0  0  0  0  0  0  0  0  0
  -15.5537    8.0365   -0.7657 C   0  0  0  0  0  0  0  0  0  0  0  0
  -13.1961    8.8077   -0.0968 C   0  0  0  0  0  0  0  0  0  0  0  0
  -12.4016    8.9831   -1.2097 C   0  0  0  0  0  0  0  0  0  0  0  0
  -10.4749    8.5788    0.1558 C   0  0  0  0  0  0  0  0  0  0  0  0
  -11.2654    8.4061    1.2538 C   0  0  0  0  0  0  0  0  0  0  0  0
  -12.6411    8.5207    1.1323 C   0  0  0  0  0  0  0  0  0  0  0  0
  -19.1810    8.8349   -0.7696 C   0  0  1  0  0  0  0  0  0  0  0  0
  -24.4064    8.5088   -2.3949 C   0  0  0  0  0  0  0  0  0  0  0  0
  -25.3026    7.9281   -3.3011 C   0  0  0  0  0  0  0  0  0  0  0  0
  -12.9242    9.2676   -2.4379 F   0  0  0  0  0  0  0  0  0  0  0  0
  -10.1919    9.0279   -2.1312 F   0  0  0  0  0  0  0  0  0  0  0  0
  -10.7579    8.1224    2.4773 F   0  0  0  0  0  0  0  0  0  0  0  0
  -13.4206    8.3468    2.2374 F   0  0  0  0  0  0  0  0  0  0  0  0
  -16.7915    8.5551   -0.7021 N   0  0  0  0  0  0  0  0  0  0  0  0
   -9.0686    8.4644    0.2674 N   0  0  0  0  0  0  0  0  0  0  0  0
  -15.3936    9.9998    0.1388 N   0  0  0  0  0  0  0  0  0  0  0  0
  -16.6617    9.7448   -0.1495 N   0  0  0  0  0  0  0  0  0  0  0  0
  -20.5902    7.0914   -0.1143 O   0  0  0  0  0  0  0  0  0  0  0  0
  -20.8739    4.3394    0.6502 O   0  0  0  0  0  0  0  0  0  0  0  0
  -17.8481    6.8730    0.9739 O   0  0  0  0  0  0  0  0  0  0  0  0
  -19.0764   10.0233   -1.4907 O   0  0  0  0  0  0  0  0  0  0  0  0
  -21.8801    9.0490   -1.3966 S   0  0  0  0  0  0  0  0  0  0  0  0
 10  1  1  1
  1 31  1  0
  2 13  2  0
 14  2  1  0
  2 28  1  0
 15  3  2  0
  3 16  1  0
  3 23  1  0
  5  4  1  0
  6  5  2  0
  5 21  1  0
  7  6  1  0
  8  7  2  0
  8 20  1  0
 34  8  1  0
 19  9  1  0
  9 30  1  0
  9 34  1  1
 11 10  1  0
 10 30  1  0
 12 11  1  0
 11 32  1  1
 12 19  1  0
 12 26  1  1
 13 26  1  0
 14 15  1  0
 14 18  2  0
 15 22  1  0
 16 17  2  0
 16 27  1  0
 17 18  1  0
 17 24  1  0
 18 25  1  0
 19 33  1  6
 20 21  2  0
 26 29  1  0
 28 29  2  0
M  END
$$$$
