
     RDKit          3D

 34 37  0  0  0  0  0  0  0  0999 V2000
  -20.0560    5.7251    0.8239 C   0  0  0  0  0  0  0  0  0  0  0  0
  -14.9086    9.0964   -0.6934 C   0  0  0  0  0  0  0  0  0  0  0  0
  -11.2471    8.5775   -0.8019 C   0  0  0  0  0  0  0  0  0  0  0  0
  -26.8497    6.0904   -4.1807 C   0  0  0  0  0  0  0  0  0  0  0  0
  -25.6702    6.8612   -3.6979 C   0  0  0  0  0  0  0  0  0  0  0  0
  -25.7472    7.6075   -2.5429 C   0  0  0  0  0  0  0  0  0  0  0  0
  -24.6644    8.3238   -2.0860 C   0  0  0  0  0  0  0  0  0  0  0  0
  -23.4408    8.3363   -2.7567 C   0  0  0  0  0  0  0  0  0  0  0  0
  -20.6767    8.3352   -1.6041 C   0  0  1  0  0  0  0  0  0  0  0  0
  -19.9481    6.5580   -0.4554 C   0  0  2  0  0  0  0  0  0  0  0  0
  -18.5300    7.0129   -0.5577 C   0  0  1  0  0  0  0  0  0  0  0  0
  -18.2791    8.0490   -1.6191 C   0  0  1  0  0  0  0  0  0  0  0  0
  -15.8867    8.1412   -0.8956 C   0  0  0  0  0  0  0  0  0  0  0  0
  -13.5281    8.9323   -0.2540 C   0  0  0  0  0  0  0  0  0  0  0  0
  -12.5477    8.7325   -1.2024 C   0  0  0  0  0  0  0  0  0  0  0  0
  -10.9271    8.6230    0.5588 C   0  0  0  0  0  0  0  0  0  0  0  0
  -11.9008    8.8208    1.4932 C   0  0  0  0  0  0  0  0  0  0  0  0
  -13.2168    8.9779    1.0885 C   0  0  0  0  0  0  0  0  0  0  0  0
  -19.3978    9.0912   -1.4522 C   0  0  1  0  0  0  0  0  0  0  0  0
  -23.3732    7.5876   -3.9108 C   0  0  0  0  0  0  0  0  0  0  0  0
  -24.4725    6.8572   -4.3795 C   0  0  0  0  0  0  0  0  0  0  0  0
  -12.8277    8.6828   -2.5372 F   0  0  0  0  0  0  0  0  0  0  0  0
  -10.2259    8.3780   -1.6684 F   0  0  0  0  0  0  0  0  0  0  0  0
  -11.6348    8.8709    2.8205 F   0  0  0  0  0  0  0  0  0  0  0  0
  -14.1810    9.1760    2.0320 F   0  0  0  0  0  0  0  0  0  0  0  0
  -17.0228    8.7305   -1.3043 N   0  0  0  0  0  0  0  0  0  0  0  0
   -9.5795    8.4614    0.9598 N   0  0  0  0  0  0  0  0  0  0  0  0
  -15.5152   10.2741   -1.0000 N   0  0  0  0  0  0  0  0  0  0  0  0
  -16.7661   10.0223   -1.3579 N   0  0  0  0  0  0  0  0  0  0  0  0
  -20.8814    7.5984   -0.4394 O   0  0  0  0  0  0  0  0  0  0  0  0
  -21.0238    4.7459    0.7048 O   0  0  0  0  0  0  0  0  0  0  0  0
  -18.1500    7.5082    0.6932 O   0  0  0  0  0  0  0  0  0  0  0  0
  -19.2421   10.0848   -2.4174 O   0  0  0  0  0  0  0  0  0  0  0  0
  -22.0857    9.2774   -2.1337 S   0  0  0  0  0  0  0  0  0  0  0  0
 10  1  1  1
  1 31  1  0
  2 13  2  0
 14  2  1  0
  2 28  1  0
 15  3  2  0
  3 16  1  0
  3 23  1  0
  5  4  1  0
  6  5  2  0
  5 21  1  0
  7  6  1  0
  8  7  2  0
  8 20  1  0
 34  8  1  0
 19  9  1  0
  9 30  1  0
  9 34  1  1
 11 10  1  0
 10 30  1  0
 12 11  1  0
 11 32  1  1
 12 19  1  0
 12 26  1  1
 13 26  1  0
 14 15  1  0
 14 18  2  0
 15 22  1  0
 16 17  2  0
 16 27  1  0
 17 18  1  0
 17 24  1  0
 18 25  1  0
 19 33  1  6
 20 21  2  0
 26 29  1  0
 28 29  2  0
M  END
$$$$
