
     RDKit          3D

 34 37  0  0  0  0  0  0  0  0999 V2000
  -19.9461    5.0436    0.1972 C   0  0  0  0  0  0  0  0  0  0  0  0
  -14.6410    8.8105   -0.9000 C   0  0  0  0  0  0  0  0  0  0  0  0
  -12.5608   11.6903    0.1332 C   0  0  0  0  0  0  0  0  0  0  0  0
  -27.0092    8.9357   -2.2769 C   0  0  0  0  0  0  0  0  0  0  0  0
  -25.6175    9.1866   -1.8094 C   0  0  0  0  0  0  0  0  0  0  0  0
  -24.6165    8.2782   -2.0729 C   0  0  0  0  0  0  0  0  0  0  0  0
  -23.3264    8.4985   -1.6467 C   0  0  0  0  0  0  0  0  0  0  0  0
  -22.9611    9.6398   -0.9320 C   0  0  0  0  0  0  0  0  0  0  0  0
  -20.1863    8.5283   -0.7474 C   0  0  1  0  0  0  0  0  0  0  0  0
  -19.8453    6.3188   -0.6427 C   0  0  2  0  0  0  0  0  0  0  0  0
  -18.4105    6.4737   -1.0245 C   0  0  1  0  0  0  0  0  0  0  0  0
  -18.0669    7.7998   -1.6461 C   0  0  1  0  0  0  0  0  0  0  0  0
  -16.0117    8.9143   -0.7571 C   0  0  0  0  0  0  0  0  0  0  0  0
  -13.5809    9.5859   -0.2669 C   0  0  0  0  0  0  0  0  0  0  0  0
  -13.5514   10.9510   -0.4569 C   0  0  0  0  0  0  0  0  0  0  0  0
  -11.5929   11.0566    0.9189 C   0  0  0  0  0  0  0  0  0  0  0  0
  -11.6264    9.7056    1.1037 C   0  0  0  0  0  0  0  0  0  0  0  0
  -12.6286    8.9572    0.5072 C   0  0  0  0  0  0  0  0  0  0  0  0
  -18.7303    8.8602   -0.7512 C   0  0  1  0  0  0  0  0  0  0  0  0
  -23.9687   10.5425   -0.6727 C   0  0  0  0  0  0  0  0  0  0  0  0
  -25.2828   10.3224   -1.1043 C   0  0  0  0  0  0  0  0  0  0  0  0
  -14.4809   11.5987   -1.2179 F   0  0  0  0  0  0  0  0  0  0  0  0
  -12.4608   13.0338   -0.0027 F   0  0  0  0  0  0  0  0  0  0  0  0
  -10.7087    9.0520    1.8559 F   0  0  0  0  0  0  0  0  0  0  0  0
  -12.6519    7.6077    0.7002 F   0  0  0  0  0  0  0  0  0  0  0  0
  -16.6217    7.9987   -1.5283 N   0  0  0  0  0  0  0  0  0  0  0  0
  -10.5743   11.8315    1.5232 N   0  0  0  0  0  0  0  0  0  0  0  0
  -14.4677    7.7954   -1.7879 N   0  0  0  0  0  0  0  0  0  0  0  0
  -15.6601    7.3366   -2.1402 N   0  0  0  0  0  0  0  0  0  0  0  0
  -20.3696    7.4075    0.0599 O   0  0  0  0  0  0  0  0  0  0  0  0
  -21.2431    4.5680    0.2332 O   0  0  0  0  0  0  0  0  0  0  0  0
  -17.6396    6.2699    0.1238 O   0  0  0  0  0  0  0  0  0  0  0  0
  -18.4682   10.1256   -1.2738 O   0  0  0  0  0  0  0  0  0  0  0  0
  -21.2953    9.8713   -0.4013 S   0  0  0  0  0  0  0  0  0  0  0  0
 10  1  1  1
  1 31  1  0
  2 13  2  0
 14  2  1  0
  2 28  1  0
 15  3  2  0
  3 16  1  0
  3 23  1  0
  5  4  1  0
  6  5  2  0
  5 21  1  0
  7  6  1  0
  8  7  2  0
  8 20  1  0
 34  8  1  0
 19  9  1  0
  9 30  1  0
  9 34  1  1
 11 10  1  0
 10 30  1  0
 12 11  1  0
 11 32  1  1
 12 19  1  0
 12 26  1  1
 13 26  1  0
 14 15  1  0
 14 18  2  0
 15 22  1  0
 16 17  2  0
 16 27  1  0
 17 18  1  0
 17 24  1  0
 18 25  1  0
 19 33  1  6
 20 21  2  0
 26 29  1  0
 28 29  2  0
M  END
$$$$
