
     RDKit          3D

 34 37  0  0  0  0  0  0  0  0999 V2000
  -20.0621    5.3652    0.5040 C   0  0  0  0  0  0  0  0  0  0  0  0
  -14.6689    8.8291   -0.8363 C   0  0  0  0  0  0  0  0  0  0  0  0
  -11.5213    9.3351    1.0410 C   0  0  0  0  0  0  0  0  0  0  0  0
  -27.1123    9.6842   -1.7183 C   0  0  0  0  0  0  0  0  0  0  0  0
  -25.6728    9.8156   -1.3590 C   0  0  0  0  0  0  0  0  0  0  0  0
  -25.2819    9.8543   -0.0390 C   0  0  0  0  0  0  0  0  0  0  0  0
  -23.9550    9.9751    0.3062 C   0  0  0  0  0  0  0  0  0  0  0  0
  -22.9407   10.0644   -0.6479 C   0  0  0  0  0  0  0  0  0  0  0  0
  -20.2135    8.8341   -0.5140 C   0  0  1  0  0  0  0  0  0  0  0  0
  -19.9507    6.6162   -0.3703 C   0  0  2  0  0  0  0  0  0  0  0  0
  -18.5291    6.7074   -0.8168 C   0  0  1  0  0  0  0  0  0  0  0  0
  -18.1639    8.0050   -1.4846 C   0  0  1  0  0  0  0  0  0  0  0  0
  -16.0247    8.9493   -0.5969 C   0  0  0  0  0  0  0  0  0  0  0  0
  -13.5486    9.4937   -0.1812 C   0  0  0  0  0  0  0  0  0  0  0  0
  -12.5789    8.7223    0.4230 C   0  0  0  0  0  0  0  0  0  0  0  0
  -11.4354   10.7309    1.0536 C   0  0  0  0  0  0  0  0  0  0  0  0
  -12.3975   11.4897    0.4543 C   0  0  0  0  0  0  0  0  0  0  0  0
  -13.4676   10.8702   -0.1713 C   0  0  0  0  0  0  0  0  0  0  0  0
  -18.7477    9.1100   -0.5883 C   0  0  1  0  0  0  0  0  0  0  0  0
  -23.3409   10.0253   -1.9652 C   0  0  0  0  0  0  0  0  0  0  0  0
  -24.6899    9.9025   -2.3211 C   0  0  0  0  0  0  0  0  0  0  0  0
  -12.6344    7.3587    0.4283 F   0  0  0  0  0  0  0  0  0  0  0  0
  -10.5278    8.6513    1.6566 F   0  0  0  0  0  0  0  0  0  0  0  0
  -12.3533   12.8435    0.4437 F   0  0  0  0  0  0  0  0  0  0  0  0
  -14.4223   11.6394   -0.7676 F   0  0  0  0  0  0  0  0  0  0  0  0
  -16.7086    8.1511   -1.4338 N   0  0  0  0  0  0  0  0  0  0  0  0
  -10.3377   11.3522    1.6955 N   0  0  0  0  0  0  0  0  0  0  0  0
  -14.5814    7.9265   -1.8494 N   0  0  0  0  0  0  0  0  0  0  0  0
  -15.8067    7.5448   -2.1798 N   0  0  0  0  0  0  0  0  0  0  0  0
  -20.4028    7.7398    0.3274 O   0  0  0  0  0  0  0  0  0  0  0  0
  -21.2141    4.6565    0.2211 O   0  0  0  0  0  0  0  0  0  0  0  0
  -17.7169    6.5004    0.3021 O   0  0  0  0  0  0  0  0  0  0  0  0
  -18.4619   10.3523   -1.1523 O   0  0  0  0  0  0  0  0  0  0  0  0
  -21.2556   10.2261   -0.1536 S   0  0  0  0  0  0  0  0  0  0  0  0
 10  1  1  1
  1 31  1  0
  2 13  2  0
 14  2  1  0
  2 28  1  0
 15  3  2  0
  3 16  1  0
  3 23  1  0
  5  4  1  0
  6  5  2  0
  5 21  1  0
  7  6  1  0
  8  7  2  0
  8 20  1  0
 34  8  1  0
 19  9  1  0
  9 30  1  0
  9 34  1  1
 11 10  1  0
 10 30  1  0
 12 11  1  0
 11 32  1  1
 12 19  1  0
 12 26  1  1
 13 26  1  0
 14 15  1  0
 14 18  2  0
 15 22  1  0
 16 17  2  0
 16 27  1  0
 17 18  1  0
 17 24  1  0
 18 25  1  0
 19 33  1  6
 20 21  2  0
 26 29  1  0
 28 29  2  0
M  END
$$$$
