
     RDKit          3D

 34 37  0  0  0  0  0  0  0  0999 V2000
  -19.7226    5.3038    1.0698 C   0  0  0  0  0  0  0  0  0  0  0  0
  -14.7848    8.4239   -0.9728 C   0  0  0  0  0  0  0  0  0  0  0  0
  -12.3142    9.1875    1.6731 C   0  0  0  0  0  0  0  0  0  0  0  0
  -27.4385    7.1022   -1.3632 C   0  0  0  0  0  0  0  0  0  0  0  0
  -26.0643    7.6720   -1.2894 C   0  0  0  0  0  0  0  0  0  0  0  0
  -25.3971    7.7357   -0.0863 C   0  0  0  0  0  0  0  0  0  0  0  0
  -24.1269    8.2595   -0.0048 C   0  0  0  0  0  0  0  0  0  0  0  0
  -23.4489    8.7505   -1.1212 C   0  0  0  0  0  0  0  0  0  0  0  0
  -20.5074    8.2298   -0.9090 C   0  0  1  0  0  0  0  0  0  0  0  0
  -19.8151    6.2492   -0.1301 C   0  0  2  0  0  0  0  0  0  0  0  0
  -18.4179    6.5022   -0.5909 C   0  0  1  0  0  0  0  0  0  0  0  0
  -18.2828    7.6025   -1.6078 C   0  0  1  0  0  0  0  0  0  0  0  0
  -15.9963    7.8564   -0.6263 C   0  0  0  0  0  0  0  0  0  0  0  0
  -13.5310    8.4604   -0.2295 C   0  0  0  0  0  0  0  0  0  0  0  0
  -13.4862    9.1465    0.9654 C   0  0  0  0  0  0  0  0  0  0  0  0
  -11.1793    8.5362    1.1795 C   0  0  0  0  0  0  0  0  0  0  0  0
  -11.2288    7.8588   -0.0033 C   0  0  0  0  0  0  0  0  0  0  0  0
  -12.4143    7.8169   -0.7196 C   0  0  0  0  0  0  0  0  0  0  0  0
  -19.1244    8.7707   -1.0672 C   0  0  1  0  0  0  0  0  0  0  0  0
  -24.1240    8.6831   -2.3199 C   0  0  0  0  0  0  0  0  0  0  0  0
  -25.4166    8.1510   -2.4075 C   0  0  0  0  0  0  0  0  0  0  0  0
  -14.5758    9.7922    1.4736 F   0  0  0  0  0  0  0  0  0  0  0  0
  -12.1863    9.8381    2.8538 F   0  0  0  0  0  0  0  0  0  0  0  0
  -10.1535    7.2153   -0.5178 F   0  0  0  0  0  0  0  0  0  0  0  0
  -12.4515    7.1357   -1.9001 F   0  0  0  0  0  0  0  0  0  0  0  0
  -16.8912    8.0553   -1.6086 N   0  0  0  0  0  0  0  0  0  0  0  0
   -9.9742    8.5860    1.9201 N   0  0  0  0  0  0  0  0  0  0  0  0
  -15.0021    8.9661   -2.2007 N   0  0  0  0  0  0  0  0  0  0  0  0
  -16.2591    8.7301   -2.5481 N   0  0  0  0  0  0  0  0  0  0  0  0
  -20.5206    7.4056    0.2143 O   0  0  0  0  0  0  0  0  0  0  0  0
  -20.5813    4.2301    0.9297 O   0  0  0  0  0  0  0  0  0  0  0  0
  -17.6440    6.7951    0.5360 O   0  0  0  0  0  0  0  0  0  0  0  0
  -19.0616    9.8323   -1.9685 O   0  0  0  0  0  0  0  0  0  0  0  0
  -21.8249    9.4192   -0.9623 S   0  0  0  0  0  0  0  0  0  0  0  0
 10  1  1  1
  1 31  1  0
  2 13  2  0
 14  2  1  0
  2 28  1  0
 15  3  2  0
  3 16  1  0
  3 23  1  0
  5  4  1  0
  6  5  2  0
  5 21  1  0
  7  6  1  0
  8  7  2  0
  8 20  1  0
 34  8  1  0
 19  9  1  0
  9 30  1  0
  9 34  1  1
 11 10  1  0
 10 30  1  0
 12 11  1  0
 11 32  1  1
 12 19  1  0
 12 26  1  1
 13 26  1  0
 14 15  1  0
 14 18  2  0
 15 22  1  0
 16 17  2  0
 16 27  1  0
 17 18  1  0
 17 24  1  0
 18 25  1  0
 19 33  1  6
 20 21  2  0
 26 29  1  0
 28 29  2  0
M  END
$$$$
