
     RDKit          3D

 34 37  0  0  0  0  0  0  0  0999 V2000
  -20.7265    5.5438   -2.1524 C   0  0  0  0  0  0  0  0  0  0  0  0
  -14.7562    8.2032   -0.1532 C   0  0  0  0  0  0  0  0  0  0  0  0
  -11.7134    9.7463    1.2777 C   0  0  0  0  0  0  0  0  0  0  0  0
  -25.6730   12.9531   -2.2407 C   0  0  0  0  0  0  0  0  0  0  0  0
  -24.6998   12.1238   -1.4769 C   0  0  0  0  0  0  0  0  0  0  0  0
  -23.6772   11.4689   -2.1267 C   0  0  0  0  0  0  0  0  0  0  0  0
  -22.7712   10.6998   -1.4324 C   0  0  0  0  0  0  0  0  0  0  0  0
  -22.8341   10.5400   -0.0476 C   0  0  0  0  0  0  0  0  0  0  0  0
  -20.5489    8.6145   -0.2465 C   0  0  1  0  0  0  0  0  0  0  0  0
  -20.3431    6.9697   -1.7503 C   0  0  2  0  0  0  0  0  0  0  0  0
  -18.8535    7.0088   -1.6603 C   0  0  1  0  0  0  0  0  0  0  0  0
  -18.2957    8.2599   -1.0386 C   0  0  1  0  0  0  0  0  0  0  0  0
  -15.8809    8.8064   -0.6836 C   0  0  0  0  0  0  0  0  0  0  0  0
  -13.3955    8.7144   -0.0394 C   0  0  0  0  0  0  0  0  0  0  0  0
  -12.9895    9.2632    1.1583 C   0  0  0  0  0  0  0  0  0  0  0  0
  -10.8384    9.6789    0.1888 C   0  0  0  0  0  0  0  0  0  0  0  0
  -11.2450    9.1351   -0.9941 C   0  0  0  0  0  0  0  0  0  0  0  0
  -12.5359    8.6459   -1.1153 C   0  0  0  0  0  0  0  0  0  0  0  0
  -19.1366    8.5037    0.2258 C   0  0  1  0  0  0  0  0  0  0  0  0
  -23.8601   11.1981    0.5937 C   0  0  0  0  0  0  0  0  0  0  0  0
  -24.7844   11.9817   -0.1087 C   0  0  0  0  0  0  0  0  0  0  0  0
  -13.8193    9.3438    2.2388 F   0  0  0  0  0  0  0  0  0  0  0  0
  -11.2363   10.2995    2.4179 F   0  0  0  0  0  0  0  0  0  0  0  0
  -10.4306    9.0508   -2.0733 F   0  0  0  0  0  0  0  0  0  0  0  0
  -12.9303    8.1038   -2.3025 F   0  0  0  0  0  0  0  0  0  0  0  0
  -16.9331    7.9766   -0.5860 N   0  0  0  0  0  0  0  0  0  0  0  0
   -9.5224   10.1816    0.3248 N   0  0  0  0  0  0  0  0  0  0  0  0
  -15.1888    6.9826    0.2614 N   0  0  0  0  0  0  0  0  0  0  0  0
  -16.4821    6.8803   -0.0094 N   0  0  0  0  0  0  0  0  0  0  0  0
  -20.9958    7.3349   -0.5695 O   0  0  0  0  0  0  0  0  0  0  0  0
  -22.0839    5.4370   -2.3882 O   0  0  0  0  0  0  0  0  0  0  0  0
  -18.4411    5.8885   -0.9327 O   0  0  0  0  0  0  0  0  0  0  0  0
  -18.6870    9.6635    0.8550 O   0  0  0  0  0  0  0  0  0  0  0  0
  -21.6532    9.5367    0.7944 S   0  0  0  0  0  0  0  0  0  0  0  0
 10  1  1  1
  1 31  1  0
  2 13  2  0
 14  2  1  0
  2 28  1  0
 15  3  2  0
  3 16  1  0
  3 23  1  0
  5  4  1  0
  6  5  2  0
  5 21  1  0
  7  6  1  0
  8  7  2  0
  8 20  1  0
 34  8  1  0
 19  9  1  0
  9 30  1  0
  9 34  1  1
 11 10  1  0
 10 30  1  0
 12 11  1  0
 11 32  1  1
 12 19  1  0
 12 26  1  1
 13 26  1  0
 14 15  1  0
 14 18  2  0
 15 22  1  0
 16 17  2  0
 16 27  1  0
 17 18  1  0
 17 24  1  0
 18 25  1  0
 19 33  1  6
 20 21  2  0
 26 29  1  0
 28 29  2  0
M  END
$$$$
