
     RDKit          3D

 23 24  0  0  0  0  0  0  0  0999 V2000
    7.8310  -17.8753  -20.7310 P   0  0  1  0  0  5  0  0  0  0  0  0
    9.6425  -23.0847  -24.1600 N   0  0  0  0  0  0  0  0  0  0  0  0
   10.2946  -24.2361  -24.4114 C   0  0  0  0  0  0  0  0  0  0  0  0
   11.4423  -24.4322  -23.8853 O   0  0  0  0  0  0  0  0  0  0  0  0
    9.8252  -25.2115  -25.1853 N   0  0  0  0  0  0  0  0  0  0  0  0
    8.6411  -25.1051  -25.7789 C   0  0  0  0  0  0  0  0  0  0  0  0
    8.2258  -26.0377  -26.5004 O   0  0  0  0  0  0  0  0  0  0  0  0
    7.9216  -23.9395  -25.5570 C   0  0  0  0  0  0  0  0  0  0  0  0
    8.4394  -22.9340  -24.7407 C   0  0  0  0  0  0  0  0  0  0  0  0
   10.2500  -22.1242  -23.3182 C   0  0  1  0  0  0  0  0  0  0  0  0
    9.9962  -20.6851  -23.7656 C   0  0  1  0  0  0  0  0  0  0  0  0
   10.6010  -19.9890  -22.5604 C   0  0  2  0  0  0  0  0  0  0  0  0
   10.7179  -20.3491  -24.9494 N   0  0  0  0  0  0  0  0  0  0  0  0
   11.9832  -20.0802  -22.6789 O   0  0  0  0  0  0  0  0  0  0  0  0
   10.0807  -20.8913  -21.4596 C   0  0  2  0  0  0  0  0  0  0  0  0
   11.8275  -20.8422  -25.2015 N   0  0  0  0  0  4  0  0  0  0  0  0
    9.7401  -22.0907  -22.0250 O   0  0  0  0  0  0  0  0  0  0  0  0
    8.8869  -20.1959  -20.8406 C   0  0  0  0  0  0  0  0  0  0  0  0
   12.9731  -20.8312  -25.6831 N   0  0  0  0  0  2  0  0  0  0  0  0
    8.4570  -19.1282  -21.6530 O   0  0  0  0  0  0  0  0  0  0  0  0
    7.6866  -16.5959  -21.5391 O   0  0  0  0  0  0  0  0  0  0  0  0
    6.3133  -18.2427  -20.0973 O   0  0  0  0  0  0  0  0  0  0  0  0
    8.8693  -17.5111  -19.4372 O   0  0  0  0  0  0  0  0  0  0  0  0
 20  1  1  0
  1 21  2  0
  1 22  1  1
  1 23  1  0
  2  3  1  0
  2  9  1  0
 10  2  1  6
  3  4  2  0
  3  5  1  0
  5  6  1  0
  6  7  2  0
  8  6  1  0
  9  8  2  0
 10 11  1  0
 17 10  1  0
 12 11  1  0
 11 13  1  6
 12 14  1  6
 15 12  1  0
 13 16  2  3
 15 17  1  0
 15 18  1  6
 16 19  2  0
 18 20  1  0
M  CHG  2  16   1  19  -1
M  END
$$$$
