
     RDKit          3D

 23 24  0  0  0  0  0  0  0  0999 V2000
    9.9818  -20.0984  -21.6588 P   0  0  1  0  0  5  0  0  0  0  0  0
   11.7395  -25.0534  -25.6929 N   0  0  0  0  0  0  0  0  0  0  0  0
   12.3643  -26.1105  -25.1393 C   0  0  0  0  0  0  0  0  0  0  0  0
   13.3445  -25.9113  -24.3444 O   0  0  0  0  0  0  0  0  0  0  0  0
   12.0321  -27.3798  -25.3609 N   0  0  0  0  0  0  0  0  0  0  0  0
   11.0270  -27.6932  -26.1716 C   0  0  0  0  0  0  0  0  0  0  0  0
   10.7376  -28.8947  -26.3608 O   0  0  0  0  0  0  0  0  0  0  0  0
   10.3444  -26.6449  -26.7721 C   0  0  0  0  0  0  0  0  0  0  0  0
   10.7154  -25.3240  -26.5208 C   0  0  0  0  0  0  0  0  0  0  0  0
   12.1890  -23.7503  -25.3764 C   0  0  1  0  0  0  0  0  0  0  0  0
   11.7475  -22.6978  -26.3927 C   0  0  1  0  0  0  0  0  0  0  0  0
   12.2231  -21.4724  -25.6344 C   0  0  2  0  0  0  0  0  0  0  0  0
   12.4414  -22.8164  -27.6336 N   0  0  0  0  0  0  0  0  0  0  0  0
   13.6069  -21.4191  -25.7581 O   0  0  0  0  0  0  0  0  0  0  0  0
   11.8093  -21.8670  -24.2309 C   0  0  2  0  0  0  0  0  0  0  0  0
   13.6619  -23.0298  -27.6830 N   0  0  0  0  0  4  0  0  0  0  0  0
   11.6511  -23.2267  -24.2060 O   0  0  0  0  0  0  0  0  0  0  0  0
   10.5171  -21.1394  -23.9264 C   0  0  0  0  0  0  0  0  0  0  0  0
   14.7411  -23.2217  -28.2688 N   0  0  0  0  0  2  0  0  0  0  0  0
   10.7631  -19.9974  -23.1391 O   0  0  0  0  0  0  0  0  0  0  0  0
    8.4710  -20.1498  -21.8191 O   0  0  0  0  0  0  0  0  0  0  0  0
   10.4405  -21.4640  -20.7844 O   0  0  0  0  0  0  0  0  0  0  0  0
   10.3177  -18.7284  -20.7129 O   0  0  0  0  0  0  0  0  0  0  0  0
 20  1  1  0
  1 21  2  0
  1 22  1  1
  1 23  1  0
  2  3  1  0
  2  9  1  0
 10  2  1  6
  3  4  2  0
  3  5  1  0
  5  6  1  0
  6  7  2  0
  8  6  1  0
  9  8  2  0
 10 11  1  0
 17 10  1  0
 12 11  1  0
 11 13  1  6
 12 14  1  1
 15 12  1  0
 13 16  2  3
 15 17  1  0
 15 18  1  6
 16 19  2  0
 18 20  1  0
M  CHG  2  16   1  19  -1
M  END
$$$$
