
     RDKit          3D

 23 24  0  0  0  0  0  0  0  0999 V2000
   10.7410  -21.0021  -21.8482 P   0  0  1  0  0  5  0  0  0  0  0  0
   11.8386  -24.8356  -25.6066 N   0  0  0  0  0  0  0  0  0  0  0  0
   12.4136  -25.7765  -26.3802 C   0  0  0  0  0  0  0  0  0  0  0  0
   13.2335  -25.4199  -27.2929 O   0  0  0  0  0  0  0  0  0  0  0  0
   12.1891  -27.0830  -26.2656 N   0  0  0  0  0  0  0  0  0  0  0  0
   11.3533  -27.5564  -25.3474 C   0  0  0  0  0  0  0  0  0  0  0  0
   11.1620  -28.7891  -25.2631 O   0  0  0  0  0  0  0  0  0  0  0  0
   10.7298  -26.6337  -24.5196 C   0  0  0  0  0  0  0  0  0  0  0  0
   10.9849  -25.2699  -24.6632 C   0  0  0  0  0  0  0  0  0  0  0  0
   12.1610  -23.4766  -25.8289 C   0  0  1  0  0  0  0  0  0  0  0  0
   10.9493  -22.5491  -25.7451 C   0  0  1  0  0  0  0  0  0  0  0  0
   11.6971  -21.2313  -25.8290 C   0  0  2  0  0  0  0  0  0  0  0  0
   10.0737  -22.6972  -26.8617 N   0  0  0  0  0  0  0  0  0  0  0  0
   12.0902  -21.0608  -27.1516 O   0  0  0  0  0  0  0  0  0  0  0  0
   12.8801  -21.5547  -24.9388 C   0  0  2  0  0  0  0  0  0  0  0  0
   10.0088  -21.8447  -27.7599 N   0  0  0  0  0  4  0  0  0  0  0  0
   12.9869  -22.9173  -24.8601 O   0  0  0  0  0  0  0  0  0  0  0  0
   12.6060  -20.9276  -23.5884 C   0  0  0  0  0  0  0  0  0  0  0  0
    9.9881  -21.4663  -28.9435 N   0  0  0  0  0  2  0  0  0  0  0  0
   11.2278  -20.6882  -23.4219 O   0  0  0  0  0  0  0  0  0  0  0  0
   10.9562  -22.4585  -21.4695 O   0  0  0  0  0  0  0  0  0  0  0  0
   11.5707  -20.0627  -20.7217 O   0  0  0  0  0  0  0  0  0  0  0  0
    9.0797  -20.6995  -21.6667 O   0  0  0  0  0  0  0  0  0  0  0  0
 20  1  1  0
  1 21  2  0
  1 22  1  1
  1 23  1  0
  2  3  1  0
  2  9  1  0
 10  2  1  1
  3  4  2  0
  3  5  1  0
  5  6  1  0
  6  7  2  0
  8  6  1  0
  9  8  2  0
 10 11  1  0
 17 10  1  0
 12 11  1  0
 11 13  1  6
 12 14  1  6
 15 12  1  0
 13 16  2  3
 15 17  1  0
 15 18  1  1
 16 19  2  0
 18 20  1  0
M  CHG  2  16   1  19  -1
M  END
$$$$
