
     RDKit          3D

 23 24  0  0  0  0  0  0  0  0999 V2000
    9.7086  -20.0009  -21.2798 P   0  0  1  0  0  5  0  0  0  0  0  0
   11.5155  -24.7044  -25.4772 N   0  0  0  0  0  0  0  0  0  0  0  0
   12.3497  -25.6927  -25.8534 C   0  0  0  0  0  0  0  0  0  0  0  0
   13.5932  -25.4389  -26.0006 O   0  0  0  0  0  0  0  0  0  0  0  0
   11.9706  -26.9460  -26.0900 N   0  0  0  0  0  0  0  0  0  0  0  0
   10.6995  -27.3123  -25.9651 C   0  0  0  0  0  0  0  0  0  0  0  0
   10.3726  -28.4971  -26.1941 O   0  0  0  0  0  0  0  0  0  0  0  0
    9.7918  -26.3361  -25.5796 C   0  0  0  0  0  0  0  0  0  0  0  0
   10.2186  -25.0302  -25.3383 C   0  0  0  0  0  0  0  0  0  0  0  0
   12.0431  -23.4110  -25.2557 C   0  0  1  0  0  0  0  0  0  0  0  0
   11.4124  -22.3426  -26.1480 C   0  0  1  0  0  0  0  0  0  0  0  0
   12.0583  -21.1314  -25.5010 C   0  0  2  0  0  0  0  0  0  0  0  0
   11.8240  -22.4594  -27.5090 N   0  0  0  0  0  0  0  0  0  0  0  0
   13.3847  -21.0970  -25.9164 O   0  0  0  0  0  0  0  0  0  0  0  0
   11.9466  -21.5333  -24.0440 C   0  0  2  0  0  0  0  0  0  0  0  0
   13.0125  -22.3485  -27.8450 N   0  0  0  0  0  4  0  0  0  0  0  0
   11.7754  -22.8907  -23.9943 O   0  0  0  0  0  0  0  0  0  0  0  0
   10.7608  -20.7899  -23.4667 C   0  0  0  0  0  0  0  0  0  0  0  0
   14.0484  -21.7104  -28.0987 N   0  0  0  0  0  2  0  0  0  0  0  0
   10.5223  -21.1903  -22.1372 O   0  0  0  0  0  0  0  0  0  0  0  0
    8.2726  -20.4008  -20.9816 O   0  0  0  0  0  0  0  0  0  0  0  0
   10.4491  -19.6533  -19.8064 O   0  0  0  0  0  0  0  0  0  0  0  0
    9.6291  -18.5644  -22.1825 O   0  0  0  0  0  0  0  0  0  0  0  0
 20  1  1  0
  1 21  2  0
  1 22  1  1
  1 23  1  0
  2  3  1  0
  2  9  1  0
 10  2  1  1
  3  4  2  0
  3  5  1  0
  5  6  1  0
  6  7  2  0
  8  6  1  0
  9  8  2  0
 10 11  1  0
 17 10  1  0
 12 11  1  0
 11 13  1  6
 12 14  1  6
 15 12  1  0
 13 16  2  3
 15 17  1  0
 15 18  1  6
 16 19  2  0
 18 20  1  0
M  CHG  2  16   1  19  -1
M  END
$$$$
