
     RDKit          3D

 23 24  0  0  0  0  0  0  0  0999 V2000
   10.9079  -20.6629  -22.2284 P   0  0  1  0  0  5  0  0  0  0  0  0
   12.4290  -24.9660  -25.7570 N   0  0  0  0  0  0  0  0  0  0  0  0
   13.1287  -25.9622  -26.3333 C   0  0  0  0  0  0  0  0  0  0  0  0
   14.1392  -25.6764  -27.0613 O   0  0  0  0  0  0  0  0  0  0  0  0
   12.8430  -27.2549  -26.2008 N   0  0  0  0  0  0  0  0  0  0  0  0
   11.8121  -27.6566  -25.4648 C   0  0  0  0  0  0  0  0  0  0  0  0
   11.5677  -28.8781  -25.3584 O   0  0  0  0  0  0  0  0  0  0  0  0
   11.0526  -26.6743  -24.8452 C   0  0  0  0  0  0  0  0  0  0  0  0
   11.3764  -25.3267  -25.0025 C   0  0  0  0  0  0  0  0  0  0  0  0
   12.8353  -23.6291  -25.9757 C   0  0  1  0  0  0  0  0  0  0  0  0
   11.6645  -22.6738  -26.2045 C   0  0  1  0  0  0  0  0  0  0  0  0
   12.4553  -21.3786  -26.1943 C   0  0  2  0  0  0  0  0  0  0  0  0
   11.0443  -22.8691  -27.4743 N   0  0  0  0  0  0  0  0  0  0  0  0
   13.1281  -21.2937  -27.4080 O   0  0  0  0  0  0  0  0  0  0  0  0
   13.4089  -21.6734  -25.0540 C   0  0  2  0  0  0  0  0  0  0  0  0
   11.2367  -22.0936  -28.4227 N   0  0  0  0  0  4  0  0  0  0  0  0
   13.4521  -23.0310  -24.8824 O   0  0  0  0  0  0  0  0  0  0  0  0
   12.8722  -20.9631  -23.8296 C   0  0  0  0  0  0  0  0  0  0  0  0
   11.8089  -21.7133  -29.4582 N   0  0  0  0  0  2  0  0  0  0  0  0
   11.4739  -21.1108  -23.7420 O   0  0  0  0  0  0  0  0  0  0  0  0
   11.6276  -19.4343  -21.6962 O   0  0  0  0  0  0  0  0  0  0  0  0
    9.2593  -20.3138  -22.2386 O   0  0  0  0  0  0  0  0  0  0  0  0
   11.1779  -21.9035  -21.1002 O   0  0  0  0  0  0  0  0  0  0  0  0
 20  1  1  0
  1 21  2  0
  1 22  1  6
  1 23  1  0
  2  3  1  0
  2  9  1  0
 10  2  1  1
  3  4  2  0
  3  5  1  0
  5  6  1  0
  6  7  2  0
  8  6  1  0
  9  8  2  0
 10 11  1  0
 17 10  1  0
 12 11  1  0
 11 13  1  6
 12 14  1  6
 15 12  1  0
 13 16  2  3
 15 17  1  0
 15 18  1  1
 16 19  2  0
 18 20  1  0
M  CHG  2  16   1  19  -1
M  END
$$$$
