
     RDKit          3D

 23 24  0  0  0  0  0  0  0  0999 V2000
    7.0516  -16.6518  -20.3203 P   0  0  1  0  0  5  0  0  0  0  0  0
    9.7535  -21.8002  -24.0260 N   0  0  0  0  0  0  0  0  0  0  0  0
    9.4582  -23.0386  -24.4660 C   0  0  0  0  0  0  0  0  0  0  0  0
    8.7182  -23.7960  -23.7511 O   0  0  0  0  0  0  0  0  0  0  0  0
    9.8880  -23.5488  -25.6173 N   0  0  0  0  0  0  0  0  0  0  0  0
   10.6630  -22.8419  -26.4329 C   0  0  0  0  0  0  0  0  0  0  0  0
   11.0517  -23.3475  -27.5082 O   0  0  0  0  0  0  0  0  0  0  0  0
   11.0015  -21.5570  -26.0329 C   0  0  0  0  0  0  0  0  0  0  0  0
   10.5359  -21.0488  -24.8202 C   0  0  0  0  0  0  0  0  0  0  0  0
    9.2336  -21.3743  -22.7816 C   0  0  1  0  0  0  0  0  0  0  0  0
   10.1044  -20.3240  -22.0931 C   0  0  1  0  0  0  0  0  0  0  0  0
    9.1579  -19.9912  -20.9546 C   0  0  2  0  0  0  0  0  0  0  0  0
   11.3196  -20.8735  -21.5864 N   0  0  0  0  0  0  0  0  0  0  0  0
    9.2152  -21.0425  -20.0466 O   0  0  0  0  0  0  0  0  0  0  0  0
    7.8446  -19.9860  -21.7109 C   0  0  2  0  0  0  0  0  0  0  0  0
   11.7293  -21.9900  -21.9375 N   0  0  0  0  0  4  0  0  0  0  0  0
    8.0230  -20.6956  -22.8680 O   0  0  0  0  0  0  0  0  0  0  0  0
    7.4919  -18.5387  -21.9809 C   0  0  0  0  0  0  0  0  0  0  0  0
   12.6080  -22.8126  -22.2470 N   0  0  0  0  0  2  0  0  0  0  0  0
    8.1399  -17.6893  -21.0627 O   0  0  0  0  0  0  0  0  0  0  0  0
    5.6146  -16.9772  -20.6945 O   0  0  0  0  0  0  0  0  0  0  0  0
    7.1577  -16.7080  -18.6394 O   0  0  0  0  0  0  0  0  0  0  0  0
    7.3247  -15.0495  -20.8131 O   0  0  0  0  0  0  0  0  0  0  0  0
 20  1  1  0
  1 21  2  0
  1 22  1  1
  1 23  1  0
  2  3  1  0
  2  9  1  0
 10  2  1  6
  3  4  2  0
  3  5  1  0
  5  6  1  0
  6  7  2  0
  8  6  1  0
  9  8  2  0
 10 11  1  0
 17 10  1  0
 12 11  1  0
 11 13  1  1
 12 14  1  1
 15 12  1  0
 13 16  2  3
 15 17  1  0
 15 18  1  6
 16 19  2  0
 18 20  1  0
M  CHG  2  16   1  19  -1
M  END
$$$$
