
     RDKit          3D

 23 24  0  0  0  0  0  0  0  0999 V2000
    9.8016  -19.6879  -20.3174 P   0  0  1  0  0  5  0  0  0  0  0  0
   11.6713  -23.7993  -25.5826 N   0  0  0  0  0  0  0  0  0  0  0  0
   12.1194  -23.9173  -26.8473 C   0  0  0  0  0  0  0  0  0  0  0  0
   11.7361  -23.0742  -27.7275 O   0  0  0  0  0  0  0  0  0  0  0  0
   12.9520  -24.8681  -27.2634 N   0  0  0  0  0  0  0  0  0  0  0  0
   13.4090  -25.7930  -26.4259 C   0  0  0  0  0  0  0  0  0  0  0  0
   14.1903  -26.6743  -26.8453 O   0  0  0  0  0  0  0  0  0  0  0  0
   12.9818  -25.7231  -25.1075 C   0  0  0  0  0  0  0  0  0  0  0  0
   12.1084  -24.7147  -24.7003 C   0  0  0  0  0  0  0  0  0  0  0  0
   10.7870  -22.7420  -25.2660 C   0  0  1  0  0  0  0  0  0  0  0  0
    9.6685  -23.1581  -24.3113 C   0  0  1  0  0  0  0  0  0  0  0  0
    9.0882  -21.7776  -24.0656 C   0  0  2  0  0  0  0  0  0  0  0  0
    8.7032  -23.9999  -24.9397 N   0  0  0  0  0  0  0  0  0  0  0  0
    8.3699  -21.4214  -25.2014 O   0  0  0  0  0  0  0  0  0  0  0  0
   10.3719  -20.9802  -23.9518 C   0  0  2  0  0  0  0  0  0  0  0  0
    7.9816  -23.5926  -25.8623 N   0  0  0  0  0  4  0  0  0  0  0  0
   11.3696  -21.7021  -24.5500 O   0  0  0  0  0  0  0  0  0  0  0  0
   10.6332  -20.7650  -22.4762 C   0  0  0  0  0  0  0  0  0  0  0  0
    6.8903  -23.3647  -26.4116 N   0  0  0  0  0  2  0  0  0  0  0  0
    9.8832  -19.6751  -21.9922 O   0  0  0  0  0  0  0  0  0  0  0  0
   10.5057  -18.4866  -19.7077 O   0  0  0  0  0  0  0  0  0  0  0  0
    8.2136  -19.6785  -19.7534 O   0  0  0  0  0  0  0  0  0  0  0  0
   10.5752  -21.0652  -19.6936 O   0  0  0  0  0  0  0  0  0  0  0  0
 20  1  1  0
  1 21  2  0
  1 22  1  6
  1 23  1  0
  2  3  1  0
  2  9  1  0
 10  2  1  1
  3  4  2  0
  3  5  1  0
  5  6  1  0
  6  7  2  0
  8  6  1  0
  9  8  2  0
 10 11  1  0
 17 10  1  0
 12 11  1  0
 11 13  1  6
 12 14  1  6
 15 12  1  0
 13 16  2  3
 15 17  1  0
 15 18  1  1
 16 19  2  0
 18 20  1  0
M  CHG  2  16   1  19  -1
M  END
$$$$
