
     RDKit          3D

 23 24  0  0  0  0  0  0  0  0999 V2000
   13.8069  -20.2895  -27.2317 P   0  0  1  0  0  5  0  0  0  0  0  0
   13.5108  -26.6807  -27.0089 N   0  0  0  0  0  0  0  0  0  0  0  0
   13.0799  -27.9546  -27.0834 C   0  0  0  0  0  0  0  0  0  0  0  0
   11.8407  -28.2071  -26.9012 O   0  0  0  0  0  0  0  0  0  0  0  0
   13.8641  -28.9989  -27.3387 N   0  0  0  0  0  0  0  0  0  0  0  0
   15.1677  -28.8427  -27.5432 C   0  0  0  0  0  0  0  0  0  0  0  0
   15.8798  -29.8424  -27.7810 O   0  0  0  0  0  0  0  0  0  0  0  0
   15.6708  -27.5511  -27.4789 C   0  0  0  0  0  0  0  0  0  0  0  0
   14.8243  -26.4757  -27.2093 C   0  0  0  0  0  0  0  0  0  0  0  0
   12.5752  -25.6573  -26.7302 C   0  0  1  0  0  0  0  0  0  0  0  0
   13.0557  -24.6773  -25.6605 C   0  0  1  0  0  0  0  0  0  0  0  0
   11.9279  -23.6700  -25.7876 C   0  0  2  0  0  0  0  0  0  0  0  0
   13.0620  -25.2566  -24.3567 N   0  0  0  0  0  0  0  0  0  0  0  0
   10.8071  -24.2231  -25.1786 O   0  0  0  0  0  0  0  0  0  0  0  0
   11.7804  -23.6444  -27.2957 C   0  0  2  0  0  0  0  0  0  0  0  0
   12.0153  -25.6064  -23.7911 N   0  0  0  0  0  4  0  0  0  0  0  0
   12.3393  -24.7913  -27.7922 O   0  0  0  0  0  0  0  0  0  0  0  0
   12.4933  -22.4044  -27.7919 C   0  0  0  0  0  0  0  0  0  0  0  0
   11.3608  -26.1989  -22.9165 N   0  0  0  0  0  2  0  0  0  0  0  0
   12.8858  -21.5905  -26.7111 O   0  0  0  0  0  0  0  0  0  0  0  0
   12.9633  -19.2532  -27.9563 O   0  0  0  0  0  0  0  0  0  0  0  0
   14.5829  -19.5039  -25.9586 O   0  0  0  0  0  0  0  0  0  0  0  0
   14.9910  -20.8018  -28.3362 O   0  0  0  0  0  0  0  0  0  0  0  0
 20  1  1  0
  1 21  2  0
  1 22  1  1
  1 23  1  0
  2  3  1  0
  2  9  1  0
 10  2  1  6
  3  4  2  0
  3  5  1  0
  5  6  1  0
  6  7  2  0
  8  6  1  0
  9  8  2  0
 10 11  1  0
 17 10  1  0
 12 11  1  0
 11 13  1  1
 12 14  1  1
 15 12  1  0
 13 16  2  3
 15 17  1  0
 15 18  1  6
 16 19  2  0
 18 20  1  0
M  CHG  2  16   1  19  -1
M  END
$$$$
