
     RDKit          3D

 23 24  0  0  0  0  0  0  0  0999 V2000
    8.7086  -18.5438  -20.5661 P   0  0  1  0  0  5  0  0  0  0  0  0
    9.8537  -23.6766  -24.5343 N   0  0  0  0  0  0  0  0  0  0  0  0
   10.4456  -24.7926  -25.0016 C   0  0  0  0  0  0  0  0  0  0  0  0
   11.7211  -24.8508  -25.0486 O   0  0  0  0  0  0  0  0  0  0  0  0
    9.7892  -25.8679  -25.4298 N   0  0  0  0  0  0  0  0  0  0  0  0
    8.4611  -25.9077  -25.4220 C   0  0  0  0  0  0  0  0  0  0  0  0
    7.8713  -26.9317  -25.8304 O   0  0  0  0  0  0  0  0  0  0  0  0
    7.7944  -24.7857  -24.9508 C   0  0  0  0  0  0  0  0  0  0  0  0
    8.5095  -23.6728  -24.5083 C   0  0  0  0  0  0  0  0  0  0  0  0
   10.6647  -22.5992  -24.1080 C   0  0  1  0  0  0  0  0  0  0  0  0
   10.6540  -21.4175  -25.0771 C   0  0  1  0  0  0  0  0  0  0  0  0
   11.4321  -20.4413  -24.2143 C   0  0  2  0  0  0  0  0  0  0  0  0
   11.3667  -21.6961  -26.2811 N   0  0  0  0  0  0  0  0  0  0  0  0
   12.7677  -20.8254  -24.2545 O   0  0  0  0  0  0  0  0  0  0  0  0
   10.8109  -20.7450  -22.8657 C   0  0  2  0  0  0  0  0  0  0  0  0
   12.6059  -21.6837  -26.3259 N   0  0  0  0  0  4  0  0  0  0  0  0
   10.2322  -21.9835  -22.9387 O   0  0  0  0  0  0  0  0  0  0  0  0
    9.7938  -19.6583  -22.5890 C   0  0  0  0  0  0  0  0  0  0  0  0
   13.7065  -21.2734  -26.7320 N   0  0  0  0  0  2  0  0  0  0  0  0
    9.0675  -19.9439  -21.4162 O   0  0  0  0  0  0  0  0  0  0  0  0
    8.0032  -18.8443  -19.2534 O   0  0  0  0  0  0  0  0  0  0  0  0
   10.0866  -17.6450  -20.2012 O   0  0  0  0  0  0  0  0  0  0  0  0
    7.6559  -17.5564  -21.4614 O   0  0  0  0  0  0  0  0  0  0  0  0
 20  1  1  0
  1 21  2  0
  1 22  1  1
  1 23  1  0
  2  3  1  0
  2  9  1  0
 10  2  1  6
  3  4  2  0
  3  5  1  0
  5  6  1  0
  6  7  2  0
  8  6  1  0
  9  8  2  0
 10 11  1  0
 17 10  1  0
 12 11  1  0
 11 13  1  6
 12 14  1  1
 15 12  1  0
 13 16  2  3
 15 17  1  0
 15 18  1  6
 16 19  2  0
 18 20  1  0
M  CHG  2  16   1  19  -1
M  END
$$$$
