
     RDKit          3D

 23 24  0  0  0  0  0  0  0  0999 V2000
    8.9038  -19.0741  -20.8458 P   0  0  1  0  0  5  0  0  0  0  0  0
   10.0643  -23.8755  -24.7110 N   0  0  0  0  0  0  0  0  0  0  0  0
   10.6138  -24.9698  -25.2721 C   0  0  0  0  0  0  0  0  0  0  0  0
   11.8794  -25.0170  -25.4410 O   0  0  0  0  0  0  0  0  0  0  0  0
    9.9241  -26.0339  -25.6750 N   0  0  0  0  0  0  0  0  0  0  0  0
    8.6028  -26.0836  -25.5436 C   0  0  0  0  0  0  0  0  0  0  0  0
    7.9811  -27.0967  -25.9312 O   0  0  0  0  0  0  0  0  0  0  0  0
    7.9792  -24.9839  -24.9714 C   0  0  0  0  0  0  0  0  0  0  0  0
    8.7286  -23.8823  -24.5584 C   0  0  0  0  0  0  0  0  0  0  0  0
   10.9078  -22.8081  -24.3244 C   0  0  1  0  0  0  0  0  0  0  0  0
   10.9617  -21.6801  -25.3542 C   0  0  1  0  0  0  0  0  0  0  0  0
   11.7598  -20.6892  -24.5272 C   0  0  2  0  0  0  0  0  0  0  0  0
   11.6866  -22.0489  -26.5263 N   0  0  0  0  0  0  0  0  0  0  0  0
   13.0801  -21.1246  -24.5183 O   0  0  0  0  0  0  0  0  0  0  0  0
   11.1011  -20.8970  -23.1783 C   0  0  2  0  0  0  0  0  0  0  0  0
   12.9255  -22.0159  -26.5669 N   0  0  0  0  0  4  0  0  0  0  0  0
   10.4765  -22.1152  -23.1987 O   0  0  0  0  0  0  0  0  0  0  0  0
   10.1214  -19.7598  -22.9811 C   0  0  0  0  0  0  0  0  0  0  0  0
   14.0246  -21.9579  -27.1441 N   0  0  0  0  0  2  0  0  0  0  0  0
    9.0748  -20.1484  -22.1219 O   0  0  0  0  0  0  0  0  0  0  0  0
    9.9932  -18.0139  -20.8492 O   0  0  0  0  0  0  0  0  0  0  0  0
    7.4223  -18.2714  -20.8784 O   0  0  0  0  0  0  0  0  0  0  0  0
    9.0307  -19.8879  -19.3605 O   0  0  0  0  0  0  0  0  0  0  0  0
 20  1  1  0
  1 21  2  0
  1 22  1  6
  1 23  1  0
  2  3  1  0
  2  9  1  0
 10  2  1  6
  3  4  2  0
  3  5  1  0
  5  6  1  0
  6  7  2  0
  8  6  1  0
  9  8  2  0
 10 11  1  0
 17 10  1  0
 12 11  1  0
 11 13  1  6
 12 14  1  1
 15 12  1  0
 13 16  2  3
 15 17  1  0
 15 18  1  6
 16 19  2  0
 18 20  1  0
M  CHG  2  16   1  19  -1
M  END
$$$$
