
     RDKit          3D

 23 24  0  0  0  0  0  0  0  0999 V2000
    9.0654  -19.2757  -21.1890 P   0  0  1  0  0  5  0  0  0  0  0  0
    9.8445  -23.7317  -24.8687 N   0  0  0  0  0  0  0  0  0  0  0  0
   10.0634  -25.0152  -25.2136 C   0  0  0  0  0  0  0  0  0  0  0  0
   11.2562  -25.4727  -25.1952 O   0  0  0  0  0  0  0  0  0  0  0  0
    9.1097  -25.8669  -25.5818 N   0  0  0  0  0  0  0  0  0  0  0  0
    7.8368  -25.4894  -25.6335 C   0  0  0  0  0  0  0  0  0  0  0  0
    6.9622  -26.3116  -25.9831 O   0  0  0  0  0  0  0  0  0  0  0  0
    7.5489  -24.1764  -25.2888 C   0  0  0  0  0  0  0  0  0  0  0  0
    8.5698  -23.3061  -24.9067 C   0  0  0  0  0  0  0  0  0  0  0  0
   10.9456  -22.9264  -24.4953 C   0  0  1  0  0  0  0  0  0  0  0  0
   11.0674  -21.6501  -25.3269 C   0  0  1  0  0  0  0  0  0  0  0  0
   12.1804  -20.9950  -24.5302 C   0  0  2  0  0  0  0  0  0  0  0  0
   11.4972  -21.9109  -26.6621 N   0  0  0  0  0  0  0  0  0  0  0  0
   13.3626  -21.6527  -24.8505 O   0  0  0  0  0  0  0  0  0  0  0  0
   11.7216  -21.3364  -23.1268 C   0  0  2  0  0  0  0  0  0  0  0  0
   12.6509  -21.6572  -27.0394 N   0  0  0  0  0  4  0  0  0  0  0  0
   10.8595  -22.3965  -23.2126 O   0  0  0  0  0  0  0  0  0  0  0  0
   11.0493  -20.1017  -22.5652 C   0  0  0  0  0  0  0  0  0  0  0  0
   13.5766  -21.6320  -27.8683 N   0  0  0  0  0  2  0  0  0  0  0  0
   10.2497  -20.4329  -21.4537 O   0  0  0  0  0  0  0  0  0  0  0  0
    7.9977  -19.3015  -22.2708 O   0  0  0  0  0  0  0  0  0  0  0  0
    8.2859  -19.4836  -19.7094 O   0  0  0  0  0  0  0  0  0  0  0  0
    9.7388  -17.7167  -21.2165 O   0  0  0  0  0  0  0  0  0  0  0  0
 20  1  1  0
  1 21  2  0
  1 22  1  1
  1 23  1  0
  2  3  1  0
  2  9  1  0
 10  2  1  6
  3  4  2  0
  3  5  1  0
  5  6  1  0
  6  7  2  0
  8  6  1  0
  9  8  2  0
 10 11  1  0
 17 10  1  0
 12 11  1  0
 11 13  1  6
 12 14  1  6
 15 12  1  0
 13 16  2  3
 15 17  1  0
 15 18  1  6
 16 19  2  0
 18 20  1  0
M  CHG  2  16   1  19  -1
M  END
$$$$
