
     RDKit          3D

 23 24  0  0  0  0  0  0  0  0999 V2000
    9.2291  -18.6015  -20.0794 P   0  0  1  0  0  5  0  0  0  0  0  0
   10.0856  -23.0822  -25.3222 N   0  0  0  0  0  0  0  0  0  0  0  0
   10.5850  -24.1850  -25.9128 C   0  0  0  0  0  0  0  0  0  0  0  0
   11.7448  -24.6028  -25.5773 O   0  0  0  0  0  0  0  0  0  0  0  0
    9.9485  -24.8923  -26.8429 N   0  0  0  0  0  0  0  0  0  0  0  0
    8.7372  -24.5410  -27.2611 C   0  0  0  0  0  0  0  0  0  0  0  0
    8.1633  -25.2248  -28.1364 O   0  0  0  0  0  0  0  0  0  0  0  0
    8.1700  -23.4115  -26.6883 C   0  0  0  0  0  0  0  0  0  0  0  0
    8.8612  -22.6898  -25.7151 C   0  0  0  0  0  0  0  0  0  0  0  0
   10.8629  -22.4179  -24.3451 C   0  0  1  0  0  0  0  0  0  0  0  0
   11.2835  -21.0100  -24.7655 C   0  0  1  0  0  0  0  0  0  0  0  0
   11.8890  -20.5766  -23.4433 C   0  0  2  0  0  0  0  0  0  0  0  0
   12.2777  -21.0230  -25.7886 N   0  0  0  0  0  0  0  0  0  0  0  0
   13.1193  -21.2126  -23.3220 O   0  0  0  0  0  0  0  0  0  0  0  0
   10.8670  -21.1655  -22.4919 C   0  0  2  0  0  0  0  0  0  0  0  0
   13.3944  -21.5317  -25.6094 N   0  0  0  0  0  4  0  0  0  0  0  0
   10.1862  -22.1469  -23.1610 O   0  0  0  0  0  0  0  0  0  0  0  0
    9.9563  -20.0354  -22.0611 C   0  0  0  0  0  0  0  0  0  0  0  0
   14.5448  -21.8537  -25.9519 N   0  0  0  0  0  2  0  0  0  0  0  0
    9.7155  -20.0919  -20.6742 O   0  0  0  0  0  0  0  0  0  0  0  0
   10.3809  -17.8457  -19.4369 O   0  0  0  0  0  0  0  0  0  0  0  0
    8.5872  -17.6105  -21.2818 O   0  0  0  0  0  0  0  0  0  0  0  0
    8.0508  -18.7974  -18.8720 O   0  0  0  0  0  0  0  0  0  0  0  0
 20  1  1  0
  1 21  2  0
  1 22  1  6
  1 23  1  0
  2  3  1  0
  2  9  1  0
 10  2  1  6
  3  4  2  0
  3  5  1  0
  5  6  1  0
  6  7  2  0
  8  6  1  0
  9  8  2  0
 10 11  1  0
 17 10  1  0
 12 11  1  0
 11 13  1  6
 12 14  1  1
 15 12  1  0
 13 16  2  3
 15 17  1  0
 15 18  1  6
 16 19  2  0
 18 20  1  0
M  CHG  2  16   1  19  -1
M  END
$$$$
