
     RDKit          3D

 23 24  0  0  0  0  0  0  0  0999 V2000
   12.8243  -18.9507  -22.7160 P   0  0  1  0  0  5  0  0  0  0  0  0
   12.0781  -24.6505  -26.6413 N   0  0  0  0  0  0  0  0  0  0  0  0
   13.3040  -24.5429  -27.1888 C   0  0  0  0  0  0  0  0  0  0  0  0
   13.9183  -23.4241  -27.1311 O   0  0  0  0  0  0  0  0  0  0  0  0
   13.9426  -25.5365  -27.8014 N   0  0  0  0  0  0  0  0  0  0  0  0
   13.3897  -26.7395  -27.9145 C   0  0  0  0  0  0  0  0  0  0  0  0
   14.0136  -27.6540  -28.4954 O   0  0  0  0  0  0  0  0  0  0  0  0
   12.1255  -26.9115  -27.3689 C   0  0  0  0  0  0  0  0  0  0  0  0
   11.4803  -25.8512  -26.7324 C   0  0  0  0  0  0  0  0  0  0  0  0
   11.5060  -23.5178  -26.0167 C   0  0  1  0  0  0  0  0  0  0  0  0
   11.2669  -23.7122  -24.5198 C   0  0  1  0  0  0  0  0  0  0  0  0
   10.8611  -22.2870  -24.1930 C   0  0  2  0  0  0  0  0  0  0  0  0
   10.1908  -24.6102  -24.2538 N   0  0  0  0  0  0  0  0  0  0  0  0
    9.5653  -22.1064  -24.6632 O   0  0  0  0  0  0  0  0  0  0  0  0
   11.8663  -21.5365  -25.0433 C   0  0  2  0  0  0  0  0  0  0  0  0
    9.0380  -24.3864  -24.6523 N   0  0  0  0  0  4  0  0  0  0  0  0
   12.3240  -22.3935  -26.0079 O   0  0  0  0  0  0  0  0  0  0  0  0
   12.9746  -21.0761  -24.1205 C   0  0  0  0  0  0  0  0  0  0  0  0
    7.7987  -24.4443  -24.5804 N   0  0  0  0  0  2  0  0  0  0  0  0
   12.4427  -20.5711  -22.9178 O   0  0  0  0  0  0  0  0  0  0  0  0
   14.3248  -18.7125  -22.7665 O   0  0  0  0  0  0  0  0  0  0  0  0
   12.1212  -17.9753  -23.8968 O   0  0  0  0  0  0  0  0  0  0  0  0
   12.3018  -18.4002  -21.1966 O   0  0  0  0  0  0  0  0  0  0  0  0
 20  1  1  0
  1 21  2  0
  1 22  1  6
  1 23  1  0
  2  3  1  0
  2  9  1  0
 10  2  1  1
  3  4  2  0
  3  5  1  0
  5  6  1  0
  6  7  2  0
  8  6  1  0
  9  8  2  0
 10 11  1  0
 17 10  1  0
 12 11  1  0
 11 13  1  6
 12 14  1  6
 15 12  1  0
 13 16  2  3
 15 17  1  0
 15 18  1  1
 16 19  2  0
 18 20  1  0
M  CHG  2  16   1  19  -1
M  END
$$$$
