
     RDKit          3D

 23 24  0  0  0  0  0  0  0  0999 V2000
   10.4418  -20.5049  -20.4396 P   0  0  1  0  0  5  0  0  0  0  0  0
   12.0471  -24.5825  -25.5694 N   0  0  0  0  0  0  0  0  0  0  0  0
   13.0874  -25.0001  -26.3160 C   0  0  0  0  0  0  0  0  0  0  0  0
   13.9313  -24.1431  -26.7471 O   0  0  0  0  0  0  0  0  0  0  0  0
   13.3114  -26.2687  -26.6490 N   0  0  0  0  0  0  0  0  0  0  0  0
   12.4925  -27.2363  -26.2506 C   0  0  0  0  0  0  0  0  0  0  0  0
   12.7283  -28.4194  -26.5789 O   0  0  0  0  0  0  0  0  0  0  0  0
   11.4011  -26.8668  -25.4774 C   0  0  0  0  0  0  0  0  0  0  0  0
   11.1919  -25.5286  -25.1440 C   0  0  0  0  0  0  0  0  0  0  0  0
   11.9199  -23.2031  -25.2840 C   0  0  1  0  0  0  0  0  0  0  0  0
   10.5753  -22.6202  -25.7174 C   0  0  1  0  0  0  0  0  0  0  0  0
   10.7370  -21.2489  -25.0879 C   0  0  2  0  0  0  0  0  0  0  0  0
   10.4638  -22.5077  -27.1352 N   0  0  0  0  0  0  0  0  0  0  0  0
   11.6237  -20.5300  -25.8816 O   0  0  0  0  0  0  0  0  0  0  0  0
   11.3735  -21.6481  -23.7718 C   0  0  2  0  0  0  0  0  0  0  0  0
   10.9936  -21.5778  -27.7616 N   0  0  0  0  0  4  0  0  0  0  0  0
   11.9139  -22.8963  -23.9278 O   0  0  0  0  0  0  0  0  0  0  0  0
   10.2803  -21.6294  -22.7247 C   0  0  0  0  0  0  0  0  0  0  0  0
   11.8512  -21.0787  -28.5099 N   0  0  0  0  0  2  0  0  0  0  0  0
   10.8234  -21.7986  -21.4358 O   0  0  0  0  0  0  0  0  0  0  0  0
    9.4538  -20.8993  -19.3538 O   0  0  0  0  0  0  0  0  0  0  0  0
   11.7993  -19.8637  -19.6741 O   0  0  0  0  0  0  0  0  0  0  0  0
    9.7033  -19.2629  -21.3322 O   0  0  0  0  0  0  0  0  0  0  0  0
 20  1  1  0
  1 21  2  0
  1 22  1  1
  1 23  1  0
  2  3  1  0
  2  9  1  0
 10  2  1  1
  3  4  2  0
  3  5  1  0
  5  6  1  0
  6  7  2  0
  8  6  1  0
  9  8  2  0
 10 11  1  0
 17 10  1  0
 12 11  1  0
 11 13  1  6
 12 14  1  6
 15 12  1  0
 13 16  2  3
 15 17  1  0
 15 18  1  1
 16 19  2  0
 18 20  1  0
M  CHG  2  16   1  19  -1
M  END
$$$$
