
     RDKit          3D

 23 24  0  0  0  0  0  0  0  0999 V2000
    8.9429  -18.7261  -20.5593 P   0  0  1  0  0  5  0  0  0  0  0  0
   11.7801  -22.5279  -25.6805 N   0  0  0  0  0  0  0  0  0  0  0  0
   11.8967  -22.9698  -26.9475 C   0  0  0  0  0  0  0  0  0  0  0  0
   10.8571  -23.0260  -27.6881 O   0  0  0  0  0  0  0  0  0  0  0  0
   13.0399  -23.3629  -27.5035 N   0  0  0  0  0  0  0  0  0  0  0  0
   14.1777  -23.3427  -26.8176 C   0  0  0  0  0  0  0  0  0  0  0  0
   15.2366  -23.7180  -27.3662 O   0  0  0  0  0  0  0  0  0  0  0  0
   14.1205  -22.8965  -25.5049 C   0  0  0  0  0  0  0  0  0  0  0  0
   12.9074  -22.4906  -24.9488 C   0  0  0  0  0  0  0  0  0  0  0  0
   10.5059  -22.1380  -25.2064 C   0  0  1  0  0  0  0  0  0  0  0  0
   10.0275  -22.9667  -24.0148 C   0  0  1  0  0  0  0  0  0  0  0  0
    8.7888  -22.1536  -23.6872 C   0  0  2  0  0  0  0  0  0  0  0  0
    9.6670  -24.2958  -24.3873 N   0  0  0  0  0  0  0  0  0  0  0  0
    7.8277  -22.4577  -24.6446 O   0  0  0  0  0  0  0  0  0  0  0  0
    9.3432  -20.7571  -23.8858 C   0  0  2  0  0  0  0  0  0  0  0  0
    8.5336  -24.5732  -24.8069 N   0  0  0  0  0  4  0  0  0  0  0  0
   10.4614  -20.8563  -24.6694 O   0  0  0  0  0  0  0  0  0  0  0  0
    9.6593  -20.2040  -22.5124 C   0  0  0  0  0  0  0  0  0  0  0  0
    7.5837  -24.4872  -25.6037 N   0  0  0  0  0  2  0  0  0  0  0  0
    8.5502  -19.5119  -21.9876 O   0  0  0  0  0  0  0  0  0  0  0  0
    7.9617  -17.6099  -20.2397 O   0  0  0  0  0  0  0  0  0  0  0  0
    8.9622  -19.7713  -19.2376 O   0  0  0  0  0  0  0  0  0  0  0  0
   10.4733  -17.9996  -20.6803 O   0  0  0  0  0  0  0  0  0  0  0  0
 20  1  1  0
  1 21  2  0
  1 22  1  1
  1 23  1  0
  2  3  1  0
  2  9  1  0
 10  2  1  1
  3  4  2  0
  3  5  1  0
  5  6  1  0
  6  7  2  0
  8  6  1  0
  9  8  2  0
 10 11  1  0
 17 10  1  0
 12 11  1  0
 11 13  1  6
 12 14  1  6
 15 12  1  0
 13 16  2  3
 15 17  1  0
 15 18  1  1
 16 19  2  0
 18 20  1  0
M  CHG  2  16   1  19  -1
M  END
$$$$
