
     RDKit          3D

 23 24  0  0  0  0  0  0  0  0999 V2000
    9.4173  -19.4270  -21.1429 P   0  0  1  0  0  5  0  0  0  0  0  0
   11.5445  -24.4559  -25.4998 N   0  0  0  0  0  0  0  0  0  0  0  0
   12.5105  -25.2134  -26.0540 C   0  0  0  0  0  0  0  0  0  0  0  0
   13.6592  -24.6990  -26.2741 O   0  0  0  0  0  0  0  0  0  0  0  0
   12.3588  -26.4894  -26.3994 N   0  0  0  0  0  0  0  0  0  0  0  0
   11.2027  -27.1170  -26.2118 C   0  0  0  0  0  0  0  0  0  0  0  0
   11.0895  -28.3163  -26.5462 O   0  0  0  0  0  0  0  0  0  0  0  0
   10.1683  -26.3871  -25.6436 C   0  0  0  0  0  0  0  0  0  0  0  0
   10.3569  -25.0506  -25.2916 C   0  0  0  0  0  0  0  0  0  0  0  0
   11.8318  -23.1092  -25.1772 C   0  0  1  0  0  0  0  0  0  0  0  0
   10.8287  -22.1207  -25.7708 C   0  0  1  0  0  0  0  0  0  0  0  0
   11.3327  -20.8741  -25.0675 C   0  0  2  0  0  0  0  0  0  0  0  0
   10.9695  -21.9870  -27.1842 N   0  0  0  0  0  0  0  0  0  0  0  0
   12.5113  -20.4903  -25.6972 O   0  0  0  0  0  0  0  0  0  0  0  0
   11.6041  -21.4514  -23.6929 C   0  0  2  0  0  0  0  0  0  0  0  0
   12.0406  -21.6424  -27.7054 N   0  0  0  0  0  4  0  0  0  0  0  0
   11.7264  -22.8087  -23.8236 O   0  0  0  0  0  0  0  0  0  0  0  0
   10.4350  -21.0691  -22.8104 C   0  0  0  0  0  0  0  0  0  0  0  0
   12.8979  -21.6428  -28.6052 N   0  0  0  0  0  2  0  0  0  0  0  0
   10.7275  -19.9038  -22.0747 O   0  0  0  0  0  0  0  0  0  0  0  0
    9.8323  -19.0680  -19.7253 O   0  0  0  0  0  0  0  0  0  0  0  0
    8.6258  -18.0868  -21.7889 O   0  0  0  0  0  0  0  0  0  0  0  0
    8.2909  -20.6909  -21.0077 O   0  0  0  0  0  0  0  0  0  0  0  0
 20  1  1  0
  1 21  2  0
  1 22  1  6
  1 23  1  0
  2  3  1  0
  2  9  1  0
 10  2  1  1
  3  4  2  0
  3  5  1  0
  5  6  1  0
  6  7  2  0
  8  6  1  0
  9  8  2  0
 10 11  1  0
 17 10  1  0
 12 11  1  0
 11 13  1  6
 12 14  1  6
 15 12  1  0
 13 16  2  3
 15 17  1  0
 15 18  1  1
 16 19  2  0
 18 20  1  0
M  CHG  2  16   1  19  -1
M  END
$$$$
