
     RDKit          3D

 23 24  0  0  0  0  0  0  0  0999 V2000
    8.8013  -19.0736  -21.4446 P   0  0  1  0  0  5  0  0  0  0  0  0
   10.8245  -24.2835  -25.3264 N   0  0  0  0  0  0  0  0  0  0  0  0
   11.7147  -25.1633  -25.8242 C   0  0  0  0  0  0  0  0  0  0  0  0
   12.9586  -24.8719  -25.8064 O   0  0  0  0  0  0  0  0  0  0  0  0
   11.3920  -26.3436  -26.3470 N   0  0  0  0  0  0  0  0  0  0  0  0
   10.1257  -26.7408  -26.4122 C   0  0  0  0  0  0  0  0  0  0  0  0
    9.8525  -27.8551  -26.9088 O   0  0  0  0  0  0  0  0  0  0  0  0
    9.1619  -25.8755  -25.9142 C   0  0  0  0  0  0  0  0  0  0  0  0
    9.5302  -24.6442  -25.3719 C   0  0  0  0  0  0  0  0  0  0  0  0
   11.2953  -23.0593  -24.7972 C   0  0  1  0  0  0  0  0  0  0  0  0
   10.5118  -21.8463  -25.2974 C   0  0  1  0  0  0  0  0  0  0  0  0
   11.1499  -20.8070  -24.3943 C   0  0  2  0  0  0  0  0  0  0  0  0
   10.7835  -21.5511  -26.6665 N   0  0  0  0  0  0  0  0  0  0  0  0
   12.4205  -20.5464  -24.8948 O   0  0  0  0  0  0  0  0  0  0  0  0
   11.2166  -21.5995  -23.1043 C   0  0  2  0  0  0  0  0  0  0  0  0
   11.9323  -21.5998  -27.1309 N   0  0  0  0  0  4  0  0  0  0  0  0
   11.1321  -22.9284  -23.4225 O   0  0  0  0  0  0  0  0  0  0  0  0
   10.0567  -21.1470  -22.2430 C   0  0  0  0  0  0  0  0  0  0  0  0
   12.7732  -21.5394  -28.0440 N   0  0  0  0  0  2  0  0  0  0  0  0
   10.2583  -19.8283  -21.7902 O   0  0  0  0  0  0  0  0  0  0  0  0
    7.6115  -19.9330  -21.8403 O   0  0  0  0  0  0  0  0  0  0  0  0
    8.6386  -18.7149  -19.8061 O   0  0  0  0  0  0  0  0  0  0  0  0
    8.6587  -17.6246  -22.3190 O   0  0  0  0  0  0  0  0  0  0  0  0
 20  1  1  0
  1 21  2  0
  1 22  1  1
  1 23  1  0
  2  3  1  0
  2  9  1  0
 10  2  1  6
  3  4  2  0
  3  5  1  0
  5  6  1  0
  6  7  2  0
  8  6  1  0
  9  8  2  0
 10 11  1  0
 17 10  1  0
 12 11  1  0
 11 13  1  6
 12 14  1  6
 15 12  1  0
 13 16  2  3
 15 17  1  0
 15 18  1  1
 16 19  2  0
 18 20  1  0
M  CHG  2  16   1  19  -1
M  END
$$$$
