
     RDKit          3D

 23 24  0  0  0  0  0  0  0  0999 V2000
   10.1461  -20.7087  -21.7350 P   0  0  1  0  0  5  0  0  0  0  0  0
   11.6800  -24.4662  -25.7128 N   0  0  0  0  0  0  0  0  0  0  0  0
   12.2480  -25.5148  -26.3390 C   0  0  0  0  0  0  0  0  0  0  0  0
   13.4241  -25.3918  -26.8228 O   0  0  0  0  0  0  0  0  0  0  0  0
   11.6650  -26.7003  -26.4977 N   0  0  0  0  0  0  0  0  0  0  0  0
   10.4424  -26.9304  -26.0310 C   0  0  0  0  0  0  0  0  0  0  0  0
    9.9199  -28.0543  -26.1950 O   0  0  0  0  0  0  0  0  0  0  0  0
    9.8055  -25.8862  -25.3755 C   0  0  0  0  0  0  0  0  0  0  0  0
   10.4418  -24.6541  -25.2242 C   0  0  0  0  0  0  0  0  0  0  0  0
   12.4054  -23.2564  -25.6093 C   0  0  1  0  0  0  0  0  0  0  0  0
   11.7577  -22.0993  -26.3690 C   0  0  1  0  0  0  0  0  0  0  0  0
   12.6705  -20.9941  -25.8707 C   0  0  2  0  0  0  0  0  0  0  0  0
   11.8765  -22.2441  -27.7833 N   0  0  0  0  0  0  0  0  0  0  0  0
   13.8829  -21.1247  -26.5384 O   0  0  0  0  0  0  0  0  0  0  0  0
   12.7940  -21.4042  -24.4170 C   0  0  2  0  0  0  0  0  0  0  0  0
   12.8869  -21.8693  -28.3969 N   0  0  0  0  0  4  0  0  0  0  0  0
   12.4597  -22.7286  -24.3240 O   0  0  0  0  0  0  0  0  0  0  0  0
   11.8516  -20.5237  -23.6242 C   0  0  0  0  0  0  0  0  0  0  0  0
   13.6281  -21.7950  -29.3916 N   0  0  0  0  0  2  0  0  0  0  0  0
   11.6873  -21.0218  -22.3167 O   0  0  0  0  0  0  0  0  0  0  0  0
   10.0817  -19.3873  -20.9864 O   0  0  0  0  0  0  0  0  0  0  0  0
    8.9975  -20.6443  -22.9665 O   0  0  0  0  0  0  0  0  0  0  0  0
    9.6703  -21.9090  -20.6317 O   0  0  0  0  0  0  0  0  0  0  0  0
 20  1  1  0
  1 21  2  0
  1 22  1  6
  1 23  1  0
  2  3  1  0
  2  9  1  0
 10  2  1  1
  3  4  2  0
  3  5  1  0
  5  6  1  0
  6  7  2  0
  8  6  1  0
  9  8  2  0
 10 11  1  0
 17 10  1  0
 12 11  1  0
 11 13  1  6
 12 14  1  6
 15 12  1  0
 13 16  2  3
 15 17  1  0
 15 18  1  1
 16 19  2  0
 18 20  1  0
M  CHG  2  16   1  19  -1
M  END
$$$$
