
     RDKit          3D

 23 24  0  0  0  0  0  0  0  0999 V2000
    9.3158  -19.4250  -22.2622 P   0  0  1  0  0  5  0  0  0  0  0  0
   11.6075  -22.2111  -26.6155 N   0  0  0  0  0  0  0  0  0  0  0  0
   12.0659  -22.8276  -27.7219 C   0  0  0  0  0  0  0  0  0  0  0  0
   11.4644  -23.8698  -28.1513 O   0  0  0  0  0  0  0  0  0  0  0  0
   13.1241  -22.4261  -28.4214 N   0  0  0  0  0  0  0  0  0  0  0  0
   13.8186  -21.3531  -28.0579 C   0  0  0  0  0  0  0  0  0  0  0  0
   14.8085  -20.9995  -28.7347 O   0  0  0  0  0  0  0  0  0  0  0  0
   13.3936  -20.6752  -26.9242 C   0  0  0  0  0  0  0  0  0  0  0  0
   12.2804  -21.1198  -26.2108 C   0  0  0  0  0  0  0  0  0  0  0  0
   10.4702  -22.7378  -25.9604 C   0  0  1  0  0  0  0  0  0  0  0  0
   10.7447  -23.1481  -24.5140 C   0  0  1  0  0  0  0  0  0  0  0  0
    9.3126  -23.4521  -24.1147 C   0  0  2  0  0  0  0  0  0  0  0  0
   11.5470  -24.3245  -24.4262 N   0  0  0  0  0  0  0  0  0  0  0  0
    8.9705  -24.6698  -24.6918 O   0  0  0  0  0  0  0  0  0  0  0  0
    8.6084  -22.2989  -24.8009 C   0  0  2  0  0  0  0  0  0  0  0  0
   11.1206  -25.4350  -24.7762 N   0  0  0  0  0  4  0  0  0  0  0  0
    9.4368  -21.8246  -25.7823 O   0  0  0  0  0  0  0  0  0  0  0  0
    8.3275  -21.2547  -23.7413 C   0  0  0  0  0  0  0  0  0  0  0  0
   11.2197  -26.5556  -25.3044 N   0  0  0  0  0  2  0  0  0  0  0  0
    9.5196  -20.8625  -23.1012 O   0  0  0  0  0  0  0  0  0  0  0  0
    7.9025  -18.8833  -22.4034 O   0  0  0  0  0  0  0  0  0  0  0  0
    9.6257  -19.5955  -20.6145 O   0  0  0  0  0  0  0  0  0  0  0  0
   10.3524  -18.2264  -22.8732 O   0  0  0  0  0  0  0  0  0  0  0  0
 20  1  1  0
  1 21  2  0
  1 22  1  1
  1 23  1  0
  2  3  1  0
  2  9  1  0
 10  2  1  1
  3  4  2  0
  3  5  1  0
  5  6  1  0
  6  7  2  0
  8  6  1  0
  9  8  2  0
 10 11  1  0
 17 10  1  0
 12 11  1  0
 11 13  1  6
 12 14  1  6
 15 12  1  0
 13 16  2  3
 15 17  1  0
 15 18  1  1
 16 19  2  0
 18 20  1  0
M  CHG  2  16   1  19  -1
M  END
$$$$
