
     RDKit          3D

 23 24  0  0  0  0  0  0  0  0999 V2000
    7.5612  -17.4808  -19.9734 P   0  0  1  0  0  5  0  0  0  0  0  0
    9.3634  -22.6623  -23.9478 N   0  0  0  0  0  0  0  0  0  0  0  0
   10.0287  -23.8024  -24.2159 C   0  0  0  0  0  0  0  0  0  0  0  0
   11.2344  -23.9320  -23.8134 O   0  0  0  0  0  0  0  0  0  0  0  0
    9.5155  -24.8317  -24.8849 N   0  0  0  0  0  0  0  0  0  0  0  0
    8.2698  -24.7964  -25.3460 C   0  0  0  0  0  0  0  0  0  0  0  0
    7.8144  -25.7787  -25.9712 O   0  0  0  0  0  0  0  0  0  0  0  0
    7.5337  -23.6461  -25.1003 C   0  0  0  0  0  0  0  0  0  0  0  0
    8.0985  -22.5828  -24.3960 C   0  0  0  0  0  0  0  0  0  0  0  0
   10.0219  -21.6396  -23.2261 C   0  0  1  0  0  0  0  0  0  0  0  0
   10.2962  -20.3919  -24.0649 C   0  0  1  0  0  0  0  0  0  0  0  0
   10.7968  -19.5004  -22.9436 C   0  0  2  0  0  0  0  0  0  0  0  0
   11.3245  -20.6023  -25.0311 N   0  0  0  0  0  0  0  0  0  0  0  0
   12.0856  -19.9152  -22.6276 O   0  0  0  0  0  0  0  0  0  0  0  0
    9.8119  -19.8832  -21.8572 C   0  0  2  0  0  0  0  0  0  0  0  0
   12.4953  -20.8408  -24.6993 N   0  0  0  0  0  4  0  0  0  0  0  0
    9.2733  -21.0979  -22.1871 O   0  0  0  0  0  0  0  0  0  0  0  0
    8.7630  -18.7929  -21.8027 C   0  0  0  0  0  0  0  0  0  0  0  0
   13.5851  -21.4314  -24.7889 N   0  0  0  0  0  2  0  0  0  0  0  0
    7.9330  -18.9572  -20.6763 O   0  0  0  0  0  0  0  0  0  0  0  0
    6.8223  -17.6518  -18.6560 O   0  0  0  0  0  0  0  0  0  0  0  0
    8.9349  -16.5556  -19.6619 O   0  0  0  0  0  0  0  0  0  0  0  0
    6.5365  -16.5804  -20.9851 O   0  0  0  0  0  0  0  0  0  0  0  0
 20  1  1  0
  1 21  2  0
  1 22  1  1
  1 23  1  0
  2  3  1  0
  2  9  1  0
 10  2  1  6
  3  4  2  0
  3  5  1  0
  5  6  1  0
  6  7  2  0
  8  6  1  0
  9  8  2  0
 10 11  1  0
 17 10  1  0
 12 11  1  0
 11 13  1  6
 12 14  1  1
 15 12  1  0
 13 16  2  3
 15 17  1  0
 15 18  1  6
 16 19  2  0
 18 20  1  0
M  CHG  2  16   1  19  -1
M  END
$$$$
