
     RDKit          3D

 23 24  0  0  0  0  0  0  0  0999 V2000
   11.1450  -20.3583  -22.6716 P   0  0  1  0  0  5  0  0  0  0  0  0
   12.4098  -23.7823  -26.5816 N   0  0  0  0  0  0  0  0  0  0  0  0
   12.7511  -24.6293  -27.5717 C   0  0  0  0  0  0  0  0  0  0  0  0
   11.8325  -25.2420  -28.2145 O   0  0  0  0  0  0  0  0  0  0  0  0
   14.0030  -24.8852  -27.9429 N   0  0  0  0  0  0  0  0  0  0  0  0
   15.0303  -24.2991  -27.3373 C   0  0  0  0  0  0  0  0  0  0  0  0
   16.1958  -24.5589  -27.7077 O   0  0  0  0  0  0  0  0  0  0  0  0
   14.7409  -23.4147  -26.3079 C   0  0  0  0  0  0  0  0  0  0  0  0
   13.4184  -23.1663  -25.9407 C   0  0  0  0  0  0  0  0  0  0  0  0
   11.0401  -23.5959  -26.2825 C   0  0  1  0  0  0  0  0  0  0  0  0
   10.6631  -24.0569  -24.8751 C   0  0  1  0  0  0  0  0  0  0  0  0
    9.2402  -23.5298  -24.8639 C   0  0  2  0  0  0  0  0  0  0  0  0
   10.6691  -25.4780  -24.7493 N   0  0  0  0  0  0  0  0  0  0  0  0
    8.4757  -24.3820  -25.6527 O   0  0  0  0  0  0  0  0  0  0  0  0
    9.4597  -22.1946  -25.5464 C   0  0  2  0  0  0  0  0  0  0  0  0
    9.7079  -26.1713  -25.1144 N   0  0  0  0  0  4  0  0  0  0  0  0
   10.6385  -22.2654  -26.2390 O   0  0  0  0  0  0  0  0  0  0  0  0
    9.5017  -21.1408  -24.4603 C   0  0  0  0  0  0  0  0  0  0  0  0
    9.1345  -26.9855  -25.8579 N   0  0  0  0  0  2  0  0  0  0  0  0
   10.2435  -21.5971  -23.3530 O   0  0  0  0  0  0  0  0  0  0  0  0
   12.3833  -20.0414  -23.4943 O   0  0  0  0  0  0  0  0  0  0  0  0
   10.2622  -18.9305  -22.5231 O   0  0  0  0  0  0  0  0  0  0  0  0
   11.6954  -20.8017  -21.1272 O   0  0  0  0  0  0  0  0  0  0  0  0
 20  1  1  0
  1 21  2  0
  1 22  1  1
  1 23  1  0
  2  3  1  0
  2  9  1  0
 10  2  1  1
  3  4  2  0
  3  5  1  0
  5  6  1  0
  6  7  2  0
  8  6  1  0
  9  8  2  0
 10 11  1  0
 17 10  1  0
 12 11  1  0
 11 13  1  6
 12 14  1  6
 15 12  1  0
 13 16  2  3
 15 17  1  0
 15 18  1  1
 16 19  2  0
 18 20  1  0
M  CHG  2  16   1  19  -1
M  END
$$$$
