
     RDKit          3D

 23 24  0  0  0  0  0  0  0  0999 V2000
   10.0462  -20.6308  -21.8473 P   0  0  1  0  0  5  0  0  0  0  0  0
   11.3641  -24.6839  -25.5276 N   0  0  0  0  0  0  0  0  0  0  0  0
   11.8786  -25.7977  -26.0835 C   0  0  0  0  0  0  0  0  0  0  0  0
   13.0423  -25.7536  -26.6092 O   0  0  0  0  0  0  0  0  0  0  0  0
   11.2538  -26.9715  -26.1296 N   0  0  0  0  0  0  0  0  0  0  0  0
   10.0397  -27.1220  -25.6110 C   0  0  0  0  0  0  0  0  0  0  0  0
    9.4770  -28.2370  -25.6690 O   0  0  0  0  0  0  0  0  0  0  0  0
    9.4571  -26.0080  -25.0235 C   0  0  0  0  0  0  0  0  0  0  0  0
   10.1364  -24.7902  -24.9900 C   0  0  0  0  0  0  0  0  0  0  0  0
   12.1302  -23.4952  -25.5426 C   0  0  1  0  0  0  0  0  0  0  0  0
   11.3904  -22.3100  -26.1619 C   0  0  1  0  0  0  0  0  0  0  0  0
   12.4083  -21.2367  -25.8232 C   0  0  2  0  0  0  0  0  0  0  0  0
   11.2509  -22.4358  -27.5762 N   0  0  0  0  0  0  0  0  0  0  0  0
   13.4780  -21.3884  -26.6982 O   0  0  0  0  0  0  0  0  0  0  0  0
   12.7775  -21.6724  -24.4194 C   0  0  2  0  0  0  0  0  0  0  0  0
   11.3976  -21.4676  -28.3369 N   0  0  0  0  0  4  0  0  0  0  0  0
   12.4279  -22.9889  -24.2822 O   0  0  0  0  0  0  0  0  0  0  0  0
   12.0170  -20.7801  -23.4616 C   0  0  0  0  0  0  0  0  0  0  0  0
   11.4046  -20.9079  -29.4465 N   0  0  0  0  0  2  0  0  0  0  0  0
   11.2492  -21.5512  -22.5669 O   0  0  0  0  0  0  0  0  0  0  0  0
   10.4351  -19.1642  -21.7551 O   0  0  0  0  0  0  0  0  0  0  0  0
    8.5883  -20.7116  -22.6887 O   0  0  0  0  0  0  0  0  0  0  0  0
    9.7671  -21.1543  -20.2559 O   0  0  0  0  0  0  0  0  0  0  0  0
 20  1  1  0
  1 21  2  0
  1 22  1  6
  1 23  1  0
  2  3  1  0
  2  9  1  0
 10  2  1  1
  3  4  2  0
  3  5  1  0
  5  6  1  0
  6  7  2  0
  8  6  1  0
  9  8  2  0
 10 11  1  0
 17 10  1  0
 12 11  1  0
 11 13  1  6
 12 14  1  6
 15 12  1  0
 13 16  2  3
 15 17  1  0
 15 18  1  1
 16 19  2  0
 18 20  1  0
M  CHG  2  16   1  19  -1
M  END
$$$$
