
     RDKit          3D

 23 24  0  0  0  0  0  0  0  0999 V2000
   10.7938  -21.2522  -20.4559 P   0  0  1  0  0  5  0  0  0  0  0  0
   12.1133  -24.7813  -25.5574 N   0  0  0  0  0  0  0  0  0  0  0  0
   13.0046  -25.3564  -26.3875 C   0  0  0  0  0  0  0  0  0  0  0  0
   13.8112  -24.6174  -27.0475 O   0  0  0  0  0  0  0  0  0  0  0  0
   13.1142  -26.6685  -26.5794 N   0  0  0  0  0  0  0  0  0  0  0  0
   12.3219  -27.5227  -25.9404 C   0  0  0  0  0  0  0  0  0  0  0  0
   12.4479  -28.7503  -26.1407 O   0  0  0  0  0  0  0  0  0  0  0  0
   11.3820  -26.9886  -25.0704 C   0  0  0  0  0  0  0  0  0  0  0  0
   11.2905  -25.6086  -24.8895 C   0  0  0  0  0  0  0  0  0  0  0  0
   12.0971  -23.3719  -25.4410 C   0  0  1  0  0  0  0  0  0  0  0  0
   10.7664  -22.7484  -25.8604 C   0  0  1  0  0  0  0  0  0  0  0  0
   11.0616  -21.3264  -25.4203 C   0  0  2  0  0  0  0  0  0  0  0  0
   10.5625  -22.8012  -27.2714 N   0  0  0  0  0  0  0  0  0  0  0  0
   11.9351  -20.7767  -26.3518 O   0  0  0  0  0  0  0  0  0  0  0  0
   11.7620  -21.6086  -24.1063 C   0  0  2  0  0  0  0  0  0  0  0  0
   10.9104  -21.8742  -28.0180 N   0  0  0  0  0  4  0  0  0  0  0  0
   12.2071  -22.9029  -24.1367 O   0  0  0  0  0  0  0  0  0  0  0  0
   10.7491  -21.3821  -23.0041 C   0  0  0  0  0  0  0  0  0  0  0  0
   11.0710  -21.3277  -29.1225 N   0  0  0  0  0  2  0  0  0  0  0  0
   11.0882  -22.1258  -21.8567 O   0  0  0  0  0  0  0  0  0  0  0  0
   11.0917  -19.7728  -20.6389 O   0  0  0  0  0  0  0  0  0  0  0  0
    9.1934  -21.3824  -19.9443 O   0  0  0  0  0  0  0  0  0  0  0  0
   11.7965  -21.7914  -19.1956 O   0  0  0  0  0  0  0  0  0  0  0  0
 20  1  1  0
  1 21  2  0
  1 22  1  1
  1 23  1  0
  2  3  1  0
  2  9  1  0
 10  2  1  1
  3  4  2  0
  3  5  1  0
  5  6  1  0
  6  7  2  0
  8  6  1  0
  9  8  2  0
 10 11  1  0
 17 10  1  0
 12 11  1  0
 11 13  1  6
 12 14  1  6
 15 12  1  0
 13 16  2  3
 15 17  1  0
 15 18  1  1
 16 19  2  0
 18 20  1  0
M  CHG  2  16   1  19  -1
M  END
$$$$
