
     RDKit          3D

 23 24  0  0  0  0  0  0  0  0999 V2000
    7.2645  -16.8711  -20.4207 P   0  0  1  0  0  5  0  0  0  0  0  0
    9.7667  -22.2032  -24.1803 N   0  0  0  0  0  0  0  0  0  0  0  0
    9.6035  -23.4939  -24.5292 C   0  0  0  0  0  0  0  0  0  0  0  0
    9.2601  -24.3434  -23.6388 O   0  0  0  0  0  0  0  0  0  0  0  0
    9.7765  -23.9664  -25.7610 N   0  0  0  0  0  0  0  0  0  0  0  0
   10.1338  -23.1645  -26.7584 C   0  0  0  0  0  0  0  0  0  0  0  0
   10.2889  -23.6368  -27.9055 O   0  0  0  0  0  0  0  0  0  0  0  0
   10.3170  -21.8218  -26.4597 C   0  0  0  0  0  0  0  0  0  0  0  0
   10.1284  -21.3552  -25.1588 C   0  0  0  0  0  0  0  0  0  0  0  0
    9.5521  -21.8260  -22.8342 C   0  0  1  0  0  0  0  0  0  0  0  0
   10.5894  -20.8310  -22.3151 C   0  0  1  0  0  0  0  0  0  0  0  0
    9.9325  -20.5317  -20.9803 C   0  0  2  0  0  0  0  0  0  0  0  0
   11.8678  -21.4328  -22.1175 N   0  0  0  0  0  0  0  0  0  0  0  0
   10.1553  -21.6269  -20.1533 O   0  0  0  0  0  0  0  0  0  0  0  0
    8.4845  -20.4591  -21.4218 C   0  0  2  0  0  0  0  0  0  0  0  0
   12.3044  -21.6846  -20.9845 N   0  0  0  0  0  4  0  0  0  0  0  0
    8.3764  -21.1157  -22.6182 O   0  0  0  0  0  0  0  0  0  0  0  0
    8.1295  -18.9925  -21.5448 C   0  0  0  0  0  0  0  0  0  0  0  0
   12.6329  -22.4414  -20.0550 N   0  0  0  0  0  2  0  0  0  0  0  0
    7.5220  -18.5270  -20.3620 O   0  0  0  0  0  0  0  0  0  0  0  0
    8.5665  -16.1013  -20.5719 O   0  0  0  0  0  0  0  0  0  0  0  0
    6.2650  -16.4233  -21.7015 O   0  0  0  0  0  0  0  0  0  0  0  0
    6.5503  -16.3276  -18.9788 O   0  0  0  0  0  0  0  0  0  0  0  0
 20  1  1  0
  1 21  2  0
  1 22  1  6
  1 23  1  0
  2  3  1  0
  2  9  1  0
 10  2  1  6
  3  4  2  0
  3  5  1  0
  5  6  1  0
  6  7  2  0
  8  6  1  0
  9  8  2  0
 10 11  1  0
 17 10  1  0
 12 11  1  0
 11 13  1  1
 12 14  1  1
 15 12  1  0
 13 16  2  3
 15 17  1  0
 15 18  1  6
 16 19  2  0
 18 20  1  0
M  CHG  2  16   1  19  -1
M  END
$$$$
