
     RDKit          3D

 23 24  0  0  0  0  0  0  0  0999 V2000
    9.0368  -19.2013  -20.7677 P   0  0  1  0  0  5  0  0  0  0  0  0
    9.8905  -23.9034  -25.0194 N   0  0  0  0  0  0  0  0  0  0  0  0
   10.4046  -25.0462  -25.5134 C   0  0  0  0  0  0  0  0  0  0  0  0
   11.6731  -25.1848  -25.5771 O   0  0  0  0  0  0  0  0  0  0  0  0
    9.6759  -26.0695  -25.9521 N   0  0  0  0  0  0  0  0  0  0  0  0
    8.3481  -26.0247  -25.9286 C   0  0  0  0  0  0  0  0  0  0  0  0
    7.6895  -27.0014  -26.3474 O   0  0  0  0  0  0  0  0  0  0  0  0
    7.7600  -24.8711  -25.4298 C   0  0  0  0  0  0  0  0  0  0  0  0
    8.5498  -23.8143  -24.9769 C   0  0  0  0  0  0  0  0  0  0  0  0
   10.7736  -22.8878  -24.5845 C   0  0  1  0  0  0  0  0  0  0  0  0
   10.8060  -21.6780  -25.5178 C   0  0  1  0  0  0  0  0  0  0  0  0
   11.6618  -20.7751  -24.6487 C   0  0  2  0  0  0  0  0  0  0  0  0
   11.4695  -21.9595  -26.7490 N   0  0  0  0  0  0  0  0  0  0  0  0
   12.9713  -21.2334  -24.7376 O   0  0  0  0  0  0  0  0  0  0  0  0
   11.0596  -21.0843  -23.2928 C   0  0  2  0  0  0  0  0  0  0  0  0
   12.6784  -22.2322  -26.7934 N   0  0  0  0  0  4  0  0  0  0  0  0
   10.4083  -22.2849  -23.3860 O   0  0  0  0  0  0  0  0  0  0  0  0
   10.1148  -19.9504  -22.9560 C   0  0  0  0  0  0  0  0  0  0  0  0
   13.6728  -22.9456  -26.5773 N   0  0  0  0  0  2  0  0  0  0  0  0
    9.1840  -20.3525  -21.9780 O   0  0  0  0  0  0  0  0  0  0  0  0
    8.0395  -18.1155  -21.1382 O   0  0  0  0  0  0  0  0  0  0  0  0
    8.5308  -19.8699  -19.3059 O   0  0  0  0  0  0  0  0  0  0  0  0
   10.5216  -18.4197  -20.5049 O   0  0  0  0  0  0  0  0  0  0  0  0
 20  1  1  0
  1 21  2  0
  1 22  1  1
  1 23  1  0
  2  3  1  0
  2  9  1  0
 10  2  1  6
  3  4  2  0
  3  5  1  0
  5  6  1  0
  6  7  2  0
  8  6  1  0
  9  8  2  0
 10 11  1  0
 17 10  1  0
 12 11  1  0
 11 13  1  6
 12 14  1  1
 15 12  1  0
 13 16  2  3
 15 17  1  0
 15 18  1  6
 16 19  2  0
 18 20  1  0
M  CHG  2  16   1  19  -1
M  END
$$$$
