
     RDKit          3D

 19 21  0  0  0  0  0  0  0  0999 V2000
   91.2315   92.8160  -45.0584 C   0  0  0  0  0  0  0  0  0  0  0  0
   91.7292   91.6153  -44.5929 C   0  0  0  0  0  0  0  0  0  0  0  0
   92.2636   91.5818  -43.3337 C   0  0  0  0  0  0  0  0  0  0  0  0
   92.3239   92.6946  -42.5164 C   0  0  0  0  0  0  0  0  0  0  0  0
   91.8157   93.8748  -43.0195 C   0  0  0  0  0  0  0  0  0  0  0  0
   91.2662   93.9416  -44.2948 C   0  0  0  0  0  0  0  0  0  0  0  0
   91.7584   95.0824  -42.4265 N   0  0  0  0  0  0  0  0  0  0  0  0
   90.8632   95.2520  -44.4673 C   0  0  0  0  0  0  0  0  0  0  0  0
   91.1776   95.9032  -43.3209 C   0  0  0  0  0  0  0  0  0  0  0  0
   90.2602   95.8729  -45.5358 C   0  0  0  0  0  0  0  0  0  0  0  0
   90.8700   97.2562  -43.2395 C   0  0  0  0  0  0  0  0  0  0  0  0
   90.2645   97.8859  -44.3085 C   0  0  0  0  0  0  0  0  0  0  0  0
   89.9533   97.2137  -45.4600 C   0  0  0  0  0  0  0  0  0  0  0  0
   92.2054   95.4832  -41.1141 C   0  0  0  0  0  0  0  0  0  0  0  0
   91.1340   95.4813  -40.0853 C   0  0  0  0  0  0  0  0  0  0  0  0
   89.2970   97.8849  -46.6257 C   0  0  0  0  0  0  0  0  0  0  0  0
   87.9642   98.3249  -46.3201 N   0  0  0  0  0  4  0  0  0  0  0  0
   87.3553   98.9794  -47.4585 C   0  0  0  0  0  0  0  0  0  0  0  0
   92.9482   89.9281  -42.6945 Br  0  0  0  0  0  0  0  0  0  0  0  0
  1  2  2  0
  1  6  1  0
  2  3  1  0
  3  4  2  0
  3 19  1  0
  4  5  1  0
  5  6  2  0
  5  7  1  0
  6  8  1  0
  7  9  1  0
  7 14  1  0
  8  9  2  0
  8 10  1  0
  9 11  1  0
 10 13  2  0
 11 12  2  0
 12 13  1  0
 13 16  1  0
 14 15  1  0
 16 17  1  0
 17 18  1  0
M  CHG  1  17   1
M  END
$$$$
