
     RDKit          3D

 19 21  0  0  0  0  0  0  0  0999 V2000
   90.9878   94.4687  -45.9526 C   0  0  0  0  0  0  0  0  0  0  0  0
   91.2803   93.2028  -46.4196 C   0  0  0  0  0  0  0  0  0  0  0  0
   91.6462   92.2473  -45.5111 C   0  0  0  0  0  0  0  0  0  0  0  0
   91.7336   92.4985  -44.1549 C   0  0  0  0  0  0  0  0  0  0  0  0
   91.4329   93.7764  -43.7297 C   0  0  0  0  0  0  0  0  0  0  0  0
   91.0580   94.7694  -44.6276 C   0  0  0  0  0  0  0  0  0  0  0  0
   91.4434   94.2659  -42.4753 N   0  0  0  0  0  0  0  0  0  0  0  0
   90.8351   95.9031  -43.8698 C   0  0  0  0  0  0  0  0  0  0  0  0
   91.0780   95.5568  -42.5821 C   0  0  0  0  0  0  0  0  0  0  0  0
   90.4462   97.1689  -44.2405 C   0  0  0  0  0  0  0  0  0  0  0  0
   90.9224   96.5357  -41.6078 C   0  0  0  0  0  0  0  0  0  0  0  0
   90.5322   97.8087  -41.9729 C   0  0  0  0  0  0  0  0  0  0  0  0
   90.2906   98.1426  -43.2786 C   0  0  0  0  0  0  0  0  0  0  0  0
   91.7671   93.6047  -41.2340 C   0  0  0  0  0  0  0  0  0  0  0  0
   93.1978   93.7110  -40.8491 C   0  0  0  0  0  0  0  0  0  0  0  0
   89.8672   99.5188  -43.6871 C   0  0  0  0  0  0  0  0  0  0  0  0
   88.4584   99.7311  -43.5040 N   0  0  0  0  0  4  0  0  0  0  0  0
   88.0914  101.0980  -43.8076 C   0  0  0  0  0  0  0  0  0  0  0  0
   92.0486   90.5053  -46.1557 Br  0  0  0  0  0  0  0  0  0  0  0  0
  1  2  2  0
  1  6  1  0
  2  3  1  0
  3  4  2  0
  3 19  1  0
  4  5  1  0
  5  6  2  0
  5  7  1  0
  6  8  1  0
  7  9  1  0
  7 14  1  0
  8  9  2  0
  8 10  1  0
  9 11  1  0
 10 13  2  0
 11 12  2  0
 12 13  1  0
 13 16  1  0
 14 15  1  0
 16 17  1  0
 17 18  1  0
M  CHG  1  17   1
M  END
$$$$
