
     RDKit          3D

 19 21  0  0  0  0  0  0  0  0999 V2000
   90.7566   95.0531  -45.8475 C   0  0  0  0  0  0  0  0  0  0  0  0
   90.8372   93.8535  -46.5260 C   0  0  0  0  0  0  0  0  0  0  0  0
   91.3372   92.7672  -45.8610 C   0  0  0  0  0  0  0  0  0  0  0  0
   91.7613   92.8241  -44.5469 C   0  0  0  0  0  0  0  0  0  0  0  0
   91.6639   94.0418  -43.9051 C   0  0  0  0  0  0  0  0  0  0  0  0
   91.1604   95.1641  -44.5530 C   0  0  0  0  0  0  0  0  0  0  0  0
   92.0067   94.3518  -42.6404 N   0  0  0  0  0  0  0  0  0  0  0  0
   91.2065   96.1899  -43.6284 C   0  0  0  0  0  0  0  0  0  0  0  0
   91.7215   95.6588  -42.4927 C   0  0  0  0  0  0  0  0  0  0  0  0
   90.8342   97.5095  -43.7318 C   0  0  0  0  0  0  0  0  0  0  0  0
   91.8728   96.4986  -41.3956 C   0  0  0  0  0  0  0  0  0  0  0  0
   91.5011   97.8247  -41.4926 C   0  0  0  0  0  0  0  0  0  0  0  0
   90.9822   98.3459  -42.6474 C   0  0  0  0  0  0  0  0  0  0  0  0
   92.5661   93.5123  -41.6083 C   0  0  0  0  0  0  0  0  0  0  0  0
   91.5487   92.8374  -40.7623 C   0  0  0  0  0  0  0  0  0  0  0  0
   90.5756   99.7815  -42.7651 C   0  0  0  0  0  0  0  0  0  0  0  0
   89.6253  100.1619  -41.7572 N   0  0  0  0  0  4  0  0  0  0  0  0
   89.2763  101.5622  -41.8689 C   0  0  0  0  0  0  0  0  0  0  0  0
   91.4474   91.1165  -46.7965 Br  0  0  0  0  0  0  0  0  0  0  0  0
  1  2  2  0
  1  6  1  0
  2  3  1  0
  3  4  2  0
  3 19  1  0
  4  5  1  0
  5  6  2  0
  5  7  1  0
  6  8  1  0
  7  9  1  0
  7 14  1  0
  8  9  2  0
  8 10  1  0
  9 11  1  0
 10 13  2  0
 11 12  2  0
 12 13  1  0
 13 16  1  0
 14 15  1  0
 16 17  1  0
 17 18  1  0
M  CHG  1  17   1
M  END
$$$$
