
     RDKit          3D

 19 21  0  0  0  0  0  0  0  0999 V2000
   92.1704   94.3595  -41.5361 C   0  0  0  0  0  0  0  0  0  0  0  0
   92.6938   93.1842  -41.0352 C   0  0  0  0  0  0  0  0  0  0  0  0
   92.6154   92.0596  -41.8106 C   0  0  0  0  0  0  0  0  0  0  0  0
   92.0372   92.0547  -43.0658 C   0  0  0  0  0  0  0  0  0  0  0  0
   91.5261   93.2498  -43.5293 C   0  0  0  0  0  0  0  0  0  0  0  0
   91.5902   94.4099  -42.7658 C   0  0  0  0  0  0  0  0  0  0  0  0
   90.9205   93.5020  -44.7052 N   0  0  0  0  0  0  0  0  0  0  0  0
   90.9939   95.3985  -43.5249 C   0  0  0  0  0  0  0  0  0  0  0  0
   90.6056   94.8102  -44.6827 C   0  0  0  0  0  0  0  0  0  0  0  0
   90.7850   96.7314  -43.2596 C   0  0  0  0  0  0  0  0  0  0  0  0
   89.9706   95.6035  -45.6309 C   0  0  0  0  0  0  0  0  0  0  0  0
   89.7576   96.9426  -45.3711 C   0  0  0  0  0  0  0  0  0  0  0  0
   90.1560   97.5218  -44.1962 C   0  0  0  0  0  0  0  0  0  0  0  0
   90.6362   92.6083  -45.8021 C   0  0  0  0  0  0  0  0  0  0  0  0
   91.7046   92.5596  -46.8330 C   0  0  0  0  0  0  0  0  0  0  0  0
   89.9309   98.9721  -43.9027 C   0  0  0  0  0  0  0  0  0  0  0  0
   90.9349   99.8096  -44.4978 N   0  0  0  0  0  4  0  0  0  0  0  0
   90.6337  101.2110  -44.2969 C   0  0  0  0  0  0  0  0  0  0  0  0
   93.3365   90.4426  -41.1195 Br  0  0  0  0  0  0  0  0  0  0  0  0
  1  2  2  0
  1  6  1  0
  2  3  1  0
  3  4  2  0
  3 19  1  0
  4  5  1  0
  5  6  2  0
  5  7  1  0
  6  8  1  0
  7  9  1  0
  7 14  1  0
  8  9  2  0
  8 10  1  0
  9 11  1  0
 10 13  2  0
 11 12  2  0
 12 13  1  0
 13 16  1  0
 14 15  1  0
 16 17  1  0
 17 18  1  0
M  CHG  1  17   1
M  END
$$$$
