
     RDKit          3D

 19 21  0  0  0  0  0  0  0  0999 V2000
   92.4037   94.4279  -41.4632 C   0  0  0  0  0  0  0  0  0  0  0  0
   92.8805   93.2410  -40.9437 C   0  0  0  0  0  0  0  0  0  0  0  0
   92.7718   92.1111  -41.7078 C   0  0  0  0  0  0  0  0  0  0  0  0
   92.2077   92.1122  -42.9694 C   0  0  0  0  0  0  0  0  0  0  0  0
   91.7435   93.3190  -43.4515 C   0  0  0  0  0  0  0  0  0  0  0  0
   91.8393   94.4846  -42.6999 C   0  0  0  0  0  0  0  0  0  0  0  0
   91.1601   93.5787  -44.6370 N   0  0  0  0  0  0  0  0  0  0  0  0
   91.2860   95.4846  -43.4765 C   0  0  0  0  0  0  0  0  0  0  0  0
   90.8905   94.8973  -44.6322 C   0  0  0  0  0  0  0  0  0  0  0  0
   91.1205   96.8269  -43.2279 C   0  0  0  0  0  0  0  0  0  0  0  0
   90.2938   95.7014  -45.5961 C   0  0  0  0  0  0  0  0  0  0  0  0
   90.1245   97.0498  -45.3532 C   0  0  0  0  0  0  0  0  0  0  0  0
   90.5297   97.6280  -44.1801 C   0  0  0  0  0  0  0  0  0  0  0  0
   90.8572   92.6832  -45.7274 C   0  0  0  0  0  0  0  0  0  0  0  0
   91.9703   92.5145  -46.6964 C   0  0  0  0  0  0  0  0  0  0  0  0
   90.3517   99.0884  -43.9048 C   0  0  0  0  0  0  0  0  0  0  0  0
   91.4682   99.8680  -44.3622 N   0  0  0  0  0  4  0  0  0  0  0  0
   91.2502  101.2801  -44.1310 C   0  0  0  0  0  0  0  0  0  0  0  0
   93.4287   90.4780  -40.9911 Br  0  0  0  0  0  0  0  0  0  0  0  0
  1  2  2  0
  1  6  1  0
  2  3  1  0
  3  4  2  0
  3 19  1  0
  4  5  1  0
  5  6  2  0
  5  7  1  0
  6  8  1  0
  7  9  1  0
  7 14  1  0
  8  9  2  0
  8 10  1  0
  9 11  1  0
 10 13  2  0
 11 12  2  0
 12 13  1  0
 13 16  1  0
 14 15  1  0
 16 17  1  0
 17 18  1  0
M  CHG  1  17   1
M  END
$$$$
