
     RDKit          3D

 19 21  0  0  0  0  0  0  0  0999 V2000
   92.2862   94.2157  -41.3364 C   0  0  0  0  0  0  0  0  0  0  0  0
   92.7573   92.9713  -40.9680 C   0  0  0  0  0  0  0  0  0  0  0  0
   92.6151   91.9382  -41.8540 C   0  0  0  0  0  0  0  0  0  0  0  0
   92.0229   92.0911  -43.0932 C   0  0  0  0  0  0  0  0  0  0  0  0
   91.5656   93.3508  -43.4225 C   0  0  0  0  0  0  0  0  0  0  0  0
   91.6951   94.4209  -42.5446 C   0  0  0  0  0  0  0  0  0  0  0  0
   90.9596   93.7521  -44.5560 N   0  0  0  0  0  0  0  0  0  0  0  0
   91.1392   95.5102  -43.1878 C   0  0  0  0  0  0  0  0  0  0  0  0
   90.7094   95.0644  -44.3935 C   0  0  0  0  0  0  0  0  0  0  0  0
   90.9988   96.8168  -42.7830 C   0  0  0  0  0  0  0  0  0  0  0  0
   90.1030   95.9811  -45.2443 C   0  0  0  0  0  0  0  0  0  0  0  0
   89.9588   97.2945  -44.8442 C   0  0  0  0  0  0  0  0  0  0  0  0
   90.3985   97.7291  -43.6226 C   0  0  0  0  0  0  0  0  0  0  0  0
   90.6195   92.9916  -45.7344 C   0  0  0  0  0  0  0  0  0  0  0  0
   91.5888   93.1417  -46.8499 C   0  0  0  0  0  0  0  0  0  0  0  0
   90.2480   99.1501  -43.1773 C   0  0  0  0  0  0  0  0  0  0  0  0
   91.1758  100.0273  -43.8354 N   0  0  0  0  0  4  0  0  0  0  0  0
   90.9744  101.4019  -43.4291 C   0  0  0  0  0  0  0  0  0  0  0  0
   93.2641   90.2258  -41.3453 Br  0  0  0  0  0  0  0  0  0  0  0  0
  1  2  2  0
  1  6  1  0
  2  3  1  0
  3  4  2  0
  3 19  1  0
  4  5  1  0
  5  6  2  0
  5  7  1  0
  6  8  1  0
  7  9  1  0
  7 14  1  0
  8  9  2  0
  8 10  1  0
  9 11  1  0
 10 13  2  0
 11 12  2  0
 12 13  1  0
 13 16  1  0
 14 15  1  0
 16 17  1  0
 17 18  1  0
M  CHG  1  17   1
M  END
$$$$
