
     RDKit          3D

 19 21  0  0  0  0  0  0  0  0999 V2000
   92.0072   94.5081  -41.6538 C   0  0  0  0  0  0  0  0  0  0  0  0
   92.4969   93.3145  -41.1625 C   0  0  0  0  0  0  0  0  0  0  0  0
   92.5861   92.2511  -42.0189 C   0  0  0  0  0  0  0  0  0  0  0  0
   92.2079   92.3251  -43.3461 C   0  0  0  0  0  0  0  0  0  0  0  0
   91.7237   93.5361  -43.7971 C   0  0  0  0  0  0  0  0  0  0  0  0
   91.6208   94.6353  -42.9522 C   0  0  0  0  0  0  0  0  0  0  0  0
   91.2955   93.8593  -45.0321 N   0  0  0  0  0  0  0  0  0  0  0  0
   91.1066   95.6606  -43.7226 C   0  0  0  0  0  0  0  0  0  0  0  0
   90.9257   95.1517  -44.9657 C   0  0  0  0  0  0  0  0  0  0  0  0
   90.8031   96.9621  -43.3987 C   0  0  0  0  0  0  0  0  0  0  0  0
   90.4105   95.9958  -45.9424 C   0  0  0  0  0  0  0  0  0  0  0  0
   90.1037   97.3036  -45.6241 C   0  0  0  0  0  0  0  0  0  0  0  0
   90.2923   97.8026  -44.3631 C   0  0  0  0  0  0  0  0  0  0  0  0
   91.2209   93.0445  -46.2210 C   0  0  0  0  0  0  0  0  0  0  0  0
   89.8714   92.4819  -46.4831 C   0  0  0  0  0  0  0  0  0  0  0  0
   89.9636   99.2182  -44.0056 C   0  0  0  0  0  0  0  0  0  0  0  0
   88.5745   99.3889  -43.6820 N   0  0  0  0  0  4  0  0  0  0  0  0
   88.2759  100.7702  -43.3689 C   0  0  0  0  0  0  0  0  0  0  0  0
   93.2605   90.6086  -41.3409 Br  0  0  0  0  0  0  0  0  0  0  0  0
  1  2  2  0
  1  6  1  0
  2  3  1  0
  3  4  2  0
  3 19  1  0
  4  5  1  0
  5  6  2  0
  5  7  1  0
  6  8  1  0
  7  9  1  0
  7 14  1  0
  8  9  2  0
  8 10  1  0
  9 11  1  0
 10 13  2  0
 11 12  2  0
 12 13  1  0
 13 16  1  0
 14 15  1  0
 16 17  1  0
 17 18  1  0
M  CHG  1  17   1
M  END
$$$$
