
     RDKit          3D

 19 21  0  0  0  0  0  0  0  0999 V2000
   92.3826   94.4661  -45.6231 C   0  0  0  0  0  0  0  0  0  0  0  0
   92.7831   93.1962  -45.9877 C   0  0  0  0  0  0  0  0  0  0  0  0
   92.7481   92.2103  -45.0394 C   0  0  0  0  0  0  0  0  0  0  0  0
   92.3308   92.4350  -43.7412 C   0  0  0  0  0  0  0  0  0  0  0  0
   91.9389   93.7180  -43.4180 C   0  0  0  0  0  0  0  0  0  0  0  0
   91.9629   94.7415  -44.3585 C   0  0  0  0  0  0  0  0  0  0  0  0
   91.4970   94.1859  -42.2352 N   0  0  0  0  0  0  0  0  0  0  0  0
   91.5135   95.8716  -43.7025 C   0  0  0  0  0  0  0  0  0  0  0  0
   91.2446   95.4935  -42.4290 C   0  0  0  0  0  0  0  0  0  0  0  0
   91.3371   97.1596  -44.1506 C   0  0  0  0  0  0  0  0  0  0  0  0
   90.7710   96.4624  -41.5522 C   0  0  0  0  0  0  0  0  0  0  0  0
   90.5916   97.7575  -41.9953 C   0  0  0  0  0  0  0  0  0  0  0  0
   90.8680   98.1234  -43.2854 C   0  0  0  0  0  0  0  0  0  0  0  0
   91.3090   93.4904  -40.9847 C   0  0  0  0  0  0  0  0  0  0  0  0
   92.5261   93.4378  -40.1348 C   0  0  0  0  0  0  0  0  0  0  0  0
   90.6778   99.5239  -43.7779 C   0  0  0  0  0  0  0  0  0  0  0  0
   89.3482   99.7506  -44.2723 N   0  0  0  0  0  4  0  0  0  0  0  0
   89.1537  101.1388  -44.6331 C   0  0  0  0  0  0  0  0  0  0  0  0
   93.2997   90.4627  -45.5430 Br  0  0  0  0  0  0  0  0  0  0  0  0
  1  2  2  0
  1  6  1  0
  2  3  1  0
  3  4  2  0
  3 19  1  0
  4  5  1  0
  5  6  2  0
  5  7  1  0
  6  8  1  0
  7  9  1  0
  7 14  1  0
  8  9  2  0
  8 10  1  0
  9 11  1  0
 10 13  2  0
 11 12  2  0
 12 13  1  0
 13 16  1  0
 14 15  1  0
 16 17  1  0
 17 18  1  0
M  CHG  1  17   1
M  END
$$$$
