
     RDKit          3D

 19 21  0  0  0  0  0  0  0  0999 V2000
   90.7239   94.7898  -45.9782 C   0  0  0  0  0  0  0  0  0  0  0  0
   90.9834   93.6017  -46.6317 C   0  0  0  0  0  0  0  0  0  0  0  0
   91.5863   92.5952  -45.9277 C   0  0  0  0  0  0  0  0  0  0  0  0
   91.9427   92.7210  -44.5984 C   0  0  0  0  0  0  0  0  0  0  0  0
   91.6658   93.9244  -43.9825 C   0  0  0  0  0  0  0  0  0  0  0  0
   91.0542   94.9664  -44.6702 C   0  0  0  0  0  0  0  0  0  0  0  0
   91.9121   94.2904  -42.7103 N   0  0  0  0  0  0  0  0  0  0  0  0
   90.9314   96.0010  -43.7626 C   0  0  0  0  0  0  0  0  0  0  0  0
   91.4593   95.5528  -42.5974 C   0  0  0  0  0  0  0  0  0  0  0  0
   90.4016   97.2620  -43.9044 C   0  0  0  0  0  0  0  0  0  0  0  0
   91.4567   96.4183  -41.5099 C   0  0  0  0  0  0  0  0  0  0  0  0
   90.9263   97.6857  -41.6453 C   0  0  0  0  0  0  0  0  0  0  0  0
   90.3966   98.1234  -42.8295 C   0  0  0  0  0  0  0  0  0  0  0  0
   92.5271   93.5406  -41.6415 C   0  0  0  0  0  0  0  0  0  0  0  0
   91.5787   92.6893  -40.8784 C   0  0  0  0  0  0  0  0  0  0  0  0
   89.8189   99.4949  -42.9890 C   0  0  0  0  0  0  0  0  0  0  0  0
   90.8354  100.5017  -43.1174 N   0  0  0  0  0  4  0  0  0  0  0  0
   90.2524  101.8191  -43.2572 C   0  0  0  0  0  0  0  0  0  0  0  0
   91.9428   90.9602  -46.8289 Br  0  0  0  0  0  0  0  0  0  0  0  0
  1  2  2  0
  1  6  1  0
  2  3  1  0
  3  4  2  0
  3 19  1  0
  4  5  1  0
  5  6  2  0
  5  7  1  0
  6  8  1  0
  7  9  1  0
  7 14  1  0
  8  9  2  0
  8 10  1  0
  9 11  1  0
 10 13  2  0
 11 12  2  0
 12 13  1  0
 13 16  1  0
 14 15  1  0
 16 17  1  0
 17 18  1  0
M  CHG  1  17   1
M  END
$$$$
