
     RDKit          3D

 19 21  0  0  0  0  0  0  0  0999 V2000
   91.0406   94.9845  -45.8050 C   0  0  0  0  0  0  0  0  0  0  0  0
   91.0365   93.8475  -46.5882 C   0  0  0  0  0  0  0  0  0  0  0  0
   91.3146   92.6491  -45.9891 C   0  0  0  0  0  0  0  0  0  0  0  0
   91.5970   92.5338  -44.6412 C   0  0  0  0  0  0  0  0  0  0  0  0
   91.5908   93.6940  -43.8942 C   0  0  0  0  0  0  0  0  0  0  0  0
   91.3122   94.9270  -44.4730 C   0  0  0  0  0  0  0  0  0  0  0  0
   91.8318   93.8440  -42.5779 N   0  0  0  0  0  0  0  0  0  0  0  0
   91.3915   95.8537  -43.4512 C   0  0  0  0  0  0  0  0  0  0  0  0
   91.7059   95.1608  -42.3295 C   0  0  0  0  0  0  0  0  0  0  0  0
   91.2089   97.2165  -43.4586 C   0  0  0  0  0  0  0  0  0  0  0  0
   91.8458   95.8746  -41.1452 C   0  0  0  0  0  0  0  0  0  0  0  0
   91.6639   97.2431  -41.1455 C   0  0  0  0  0  0  0  0  0  0  0  0
   91.3464   97.9285  -42.2874 C   0  0  0  0  0  0  0  0  0  0  0  0
   92.1608   92.8495  -41.5852 C   0  0  0  0  0  0  0  0  0  0  0  0
   93.6199   92.6589  -41.3827 C   0  0  0  0  0  0  0  0  0  0  0  0
   91.1466   99.4117  -42.3007 C   0  0  0  0  0  0  0  0  0  0  0  0
   89.8959   99.7973  -41.7086 N   0  0  0  0  0  4  0  0  0  0  0  0
   89.7688  101.2378  -41.6457 C   0  0  0  0  0  0  0  0  0  0  0  0
   91.3086   91.0849  -47.0687 Br  0  0  0  0  0  0  0  0  0  0  0  0
  1  2  2  0
  1  6  1  0
  2  3  1  0
  3  4  2  0
  3 19  1  0
  4  5  1  0
  5  6  2  0
  5  7  1  0
  6  8  1  0
  7  9  1  0
  7 14  1  0
  8  9  2  0
  8 10  1  0
  9 11  1  0
 10 13  2  0
 11 12  2  0
 12 13  1  0
 13 16  1  0
 14 15  1  0
 16 17  1  0
 17 18  1  0
M  CHG  1  17   1
M  END
$$$$
