
     RDKit          3D

 19 21  0  0  0  0  0  0  0  0999 V2000
   92.3579   94.0952  -41.9284 C   0  0  0  0  0  0  0  0  0  0  0  0
   92.7629   92.8797  -41.4141 C   0  0  0  0  0  0  0  0  0  0  0  0
   92.5107   91.7517  -42.1465 C   0  0  0  0  0  0  0  0  0  0  0  0
   91.8715   91.7821  -43.3714 C   0  0  0  0  0  0  0  0  0  0  0  0
   91.4830   93.0169  -43.8495 C   0  0  0  0  0  0  0  0  0  0  0  0
   91.7246   94.1814  -43.1295 C   0  0  0  0  0  0  0  0  0  0  0  0
   90.8514   93.3077  -45.0026 N   0  0  0  0  0  0  0  0  0  0  0  0
   91.2117   95.2134  -43.8918 C   0  0  0  0  0  0  0  0  0  0  0  0
   90.6963   94.6446  -45.0089 C   0  0  0  0  0  0  0  0  0  0  0  0
   91.1772   96.5686  -43.6617 C   0  0  0  0  0  0  0  0  0  0  0  0
   90.1118   95.4823  -45.9515 C   0  0  0  0  0  0  0  0  0  0  0  0
   90.0737   96.8439  -45.7269 C   0  0  0  0  0  0  0  0  0  0  0  0
   90.5990   97.4030  -44.5928 C   0  0  0  0  0  0  0  0  0  0  0  0
   90.4059   92.4250  -46.0538 C   0  0  0  0  0  0  0  0  0  0  0  0
   91.4417   92.1365  -47.0787 C   0  0  0  0  0  0  0  0  0  0  0  0
   90.5639   98.8773  -44.3377 C   0  0  0  0  0  0  0  0  0  0  0  0
   89.2615   99.3284  -43.9330 N   0  0  0  0  0  4  0  0  0  0  0  0
   89.2415  100.7625  -43.7382 C   0  0  0  0  0  0  0  0  0  0  0  0
   93.0689   90.0792  -41.4371 Br  0  0  0  0  0  0  0  0  0  0  0  0
  1  2  2  0
  1  6  1  0
  2  3  1  0
  3  4  2  0
  3 19  1  0
  4  5  1  0
  5  6  2  0
  5  7  1  0
  6  8  1  0
  7  9  1  0
  7 14  1  0
  8  9  2  0
  8 10  1  0
  9 11  1  0
 10 13  2  0
 11 12  2  0
 12 13  1  0
 13 16  1  0
 14 15  1  0
 16 17  1  0
 17 18  1  0
M  CHG  1  17   1
M  END
$$$$
