
     RDKit          3D

 28 30  0  0  0  0  0  0  0  0999 V2000
    6.4366    2.9427    7.4811 C   0  0  0  0  0  0  0  0  0  0  0  0
    5.4215    3.8599    7.7004 C   0  0  0  0  0  0  0  0  0  0  0  0
    4.3848    3.4454    8.5336 C   0  0  0  0  0  0  0  0  0  0  0  0
    1.1855    1.2601   11.7362 C   0  0  0  0  0  0  0  0  0  0  0  0
    0.1792    0.9861   12.6290 C   0  0  0  0  0  0  0  0  0  0  0  0
   -0.8255    1.8845   12.8476 C   0  0  0  0  0  0  0  0  0  0  0  0
   -0.8185    3.0749   12.1601 C   0  0  0  0  0  0  0  0  0  0  0  0
    0.2162    3.3397   11.2505 C   0  0  0  0  0  0  0  0  0  0  0  0
    0.1285    4.6244   10.5576 C   0  0  0  0  0  0  0  0  0  0  0  0
    1.1307    5.6273   10.8611 C   0  0  0  0  0  0  0  0  0  0  0  0
    6.1306    5.3763    5.9120 C   0  0  0  0  0  0  0  0  0  0  0  0
    6.2211    6.5927    5.2864 C   0  0  0  0  0  0  0  0  0  0  0  0
    5.5956    7.6626    5.8811 C   0  0  0  0  0  0  0  0  0  0  0  0
    4.8986    7.4912    7.0790 C   0  0  0  0  0  0  0  0  0  0  0  0
    4.8288    6.2549    7.6776 C   0  0  0  0  0  0  0  0  0  0  0  0
    6.9743    6.6760    4.0104 C   0  0  1  0  0  0  0  0  0  0  0  0
    8.3236    7.2921    4.3552 C   0  0  0  0  0  0  0  0  0  0  0  0
    4.3601    2.2038    9.1078 C   0  0  0  0  0  0  0  0  0  0  0  0
    5.3916    1.3310    8.8582 C   0  0  0  0  0  0  0  0  0  0  0  0
    6.4605    1.6800    8.0348 C   0  0  0  0  0  0  0  0  0  0  0  0
    5.4490    5.1822    7.0939 C   0  0  0  0  0  0  0  0  0  0  0  0
    3.2697    1.7859    9.9785 C   0  0  0  0  0  0  0  0  0  0  0  0
    2.2263    2.7409   10.1252 O   0  0  0  0  0  0  0  0  0  0  0  0
    1.2230    2.4531   11.0240 C   0  0  0  0  0  0  0  0  0  0  0  0
    1.8061    6.2700    9.8234 O   0  0  0  0  0  0  0  0  0  0  0  0
    1.4186    5.9447   12.0364 O   0  0  0  0  0  0  0  0  0  0  0  0
    7.1469    5.3648    3.4094 N   0  0  0  0  0  4  0  0  0  0  0  0
    8.1532    8.6384    4.5986 O   0  0  0  0  0  0  0  0  0  0  0  0
  2  1  2  0
 20  1  1  0
  3  2  1  0
  2 21  1  0
 18  3  2  0
  4  5  2  0
 24  4  1  0
  5  6  1  0
  7  6  2  0
  8  7  1  0
  8  9  1  0
 24  8  2  0
  9 10  1  0
 10 25  1  0
 10 26  2  0
 11 12  2  0
 21 11  1  0
 12 13  1  0
 12 16  1  0
 14 13  2  0
 15 14  1  0
 21 15  2  0
 16 17  1  0
 16 27  1  1
 17 28  1  0
 18 19  1  0
 22 18  1  0
 19 20  2  0
 23 22  1  0
 23 24  1  0
M  CHG  1  27   1
M  END
$$$$
