
     RDKit          3D

 28 30  0  0  0  0  0  0  0  0999 V2000
    7.0811    2.7984    7.4776 C   0  0  0  0  0  0  0  0  0  0  0  0
    5.8849    3.3959    7.8408 C   0  0  0  0  0  0  0  0  0  0  0  0
    5.0768    2.6757    8.7180 C   0  0  0  0  0  0  0  0  0  0  0  0
    2.4464   -1.6064   10.0377 C   0  0  0  0  0  0  0  0  0  0  0  0
    1.6434   -2.5293   10.6609 C   0  0  0  0  0  0  0  0  0  0  0  0
    0.7704   -2.1491   11.6395 C   0  0  0  0  0  0  0  0  0  0  0  0
    0.7039   -0.8235   11.9973 C   0  0  0  0  0  0  0  0  0  0  0  0
    1.5302    0.1076   11.3504 C   0  0  0  0  0  0  0  0  0  0  0  0
    1.3763    1.4939   11.7892 C   0  0  0  0  0  0  0  0  0  0  0  0
    0.4111    2.3216   11.0925 C   0  0  0  0  0  0  0  0  0  0  0  0
    5.9718    5.1222    6.1051 C   0  0  0  0  0  0  0  0  0  0  0  0
    5.6775    6.3470    5.5643 C   0  0  0  0  0  0  0  0  0  0  0  0
    4.8765    7.1906    6.2968 C   0  0  0  0  0  0  0  0  0  0  0  0
    4.3918    6.7912    7.5441 C   0  0  0  0  0  0  0  0  0  0  0  0
    4.7078    5.5537    8.0545 C   0  0  0  0  0  0  0  0  0  0  0  0
    6.2293    6.6795    4.2274 C   0  0  1  0  0  0  0  0  0  0  0  0
    7.3614    7.6685    4.4711 C   0  0  0  0  0  0  0  0  0  0  0  0
    5.4345    1.4460    9.1992 C   0  0  0  0  0  0  0  0  0  0  0  0
    6.6319    0.8971    8.8078 C   0  0  0  0  0  0  0  0  0  0  0  0
    7.4891    1.5624    7.9332 C   0  0  0  0  0  0  0  0  0  0  0  0
    5.5056    4.7056    7.3332 C   0  0  0  0  0  0  0  0  0  0  0  0
    4.5793    0.7062   10.1173 C   0  0  0  0  0  0  0  0  0  0  0  0
    3.2039    0.6780    9.7571 O   0  0  0  0  0  0  0  0  0  0  0  0
    2.4043   -0.2585   10.3741 C   0  0  0  0  0  0  0  0  0  0  0  0
    0.8300    3.1491   10.0505 O   0  0  0  0  0  0  0  0  0  0  0  0
   -0.8031    2.3233   11.3937 O   0  0  0  0  0  0  0  0  0  0  0  0
    6.7206    5.4941    3.5463 N   0  0  0  0  0  4  0  0  0  0  0  0
    6.8348    8.9391    4.5649 O   0  0  0  0  0  0  0  0  0  0  0  0
  2  1  2  0
 20  1  1  0
  3  2  1  0
  2 21  1  0
 18  3  2  0
  4  5  2  0
 24  4  1  0
  5  6  1  0
  7  6  2  0
  8  7  1  0
  8  9  1  0
 24  8  2  0
  9 10  1  0
 10 25  1  0
 10 26  2  0
 11 12  2  0
 21 11  1  0
 12 13  1  0
 12 16  1  0
 14 13  2  0
 15 14  1  0
 21 15  2  0
 16 17  1  0
 16 27  1  1
 17 28  1  0
 18 19  1  0
 22 18  1  0
 19 20  2  0
 23 22  1  0
 23 24  1  0
M  CHG  1  27   1
M  END
$$$$
