
     RDKit          3D

 28 30  0  0  0  0  0  0  0  0999 V2000
    6.3326    2.8404    7.3638 C   0  0  0  0  0  0  0  0  0  0  0  0
    5.2088    3.6238    7.5713 C   0  0  0  0  0  0  0  0  0  0  0  0
    4.1720    3.0364    8.2931 C   0  0  0  0  0  0  0  0  0  0  0  0
    1.3440    1.0421   11.8291 C   0  0  0  0  0  0  0  0  0  0  0  0
    0.3363    0.6368   12.6690 C   0  0  0  0  0  0  0  0  0  0  0  0
    0.4367   -0.5312   13.3688 C   0  0  0  0  0  0  0  0  0  0  0  0
    1.5647   -1.3031   13.2221 C   0  0  0  0  0  0  0  0  0  0  0  0
    2.5861   -0.8749   12.3609 C   0  0  0  0  0  0  0  0  0  0  0  0
    3.7510   -1.7552   12.2832 C   0  0  0  0  0  0  0  0  0  0  0  0
    3.9574   -2.4987   11.0557 C   0  0  0  0  0  0  0  0  0  0  0  0
    5.6263    5.2775    5.8130 C   0  0  0  0  0  0  0  0  0  0  0  0
    5.6067    6.5362    5.2704 C   0  0  0  0  0  0  0  0  0  0  0  0
    5.0599    7.5465    6.0252 C   0  0  0  0  0  0  0  0  0  0  0  0
    4.5486    7.2754    7.2962 C   0  0  0  0  0  0  0  0  0  0  0  0
    4.5851    5.9992    7.8078 C   0  0  0  0  0  0  0  0  0  0  0  0
    6.1633    6.7263    3.9078 C   0  0  1  0  0  0  0  0  0  0  0  0
    7.2998    7.7298    4.0515 C   0  0  0  0  0  0  0  0  0  0  0  0
    4.2485    1.7579    8.7739 C   0  0  0  0  0  0  0  0  0  0  0  0
    5.3856    1.0226    8.5406 C   0  0  0  0  0  0  0  0  0  0  0  0
    6.4611    1.5476    7.8264 C   0  0  0  0  0  0  0  0  0  0  0  0
    5.1282    4.9852    7.0643 C   0  0  0  0  0  0  0  0  0  0  0  0
    3.1564    1.1584    9.5286 C   0  0  0  0  0  0  0  0  0  0  0  0
    3.5167    0.6812   10.8188 O   0  0  0  0  0  0  0  0  0  0  0  0
    2.4980    0.2866   11.6579 C   0  0  0  0  0  0  0  0  0  0  0  0
    2.8693   -3.0825   10.4065 O   0  0  0  0  0  0  0  0  0  0  0  0
    5.0914   -2.6400   10.5469 O   0  0  0  0  0  0  0  0  0  0  0  0
    6.6502    5.4747    3.3540 N   0  0  0  0  0  4  0  0  0  0  0  0
    6.7738    8.9581    4.3909 O   0  0  0  0  0  0  0  0  0  0  0  0
  2  1  2  0
 20  1  1  0
  3  2  1  0
  2 21  1  0
 18  3  2  0
  4  5  2  0
 24  4  1  0
  5  6  1  0
  7  6  2  0
  8  7  1  0
  8  9  1  0
 24  8  2  0
  9 10  1  0
 10 25  1  0
 10 26  2  0
 11 12  2  0
 21 11  1  0
 12 13  1  0
 12 16  1  0
 14 13  2  0
 15 14  1  0
 21 15  2  0
 16 17  1  0
 16 27  1  1
 17 28  1  0
 18 19  1  0
 22 18  1  0
 19 20  2  0
 23 22  1  0
 23 24  1  0
M  CHG  1  27   1
M  END
$$$$
