
     RDKit          3D

 28 30  0  0  0  0  0  0  0  0999 V2000
    5.5778    2.6592    7.4123 C   0  0  0  0  0  0  0  0  0  0  0  0
    4.9478    3.7939    7.8973 C   0  0  0  0  0  0  0  0  0  0  0  0
    4.0450    3.6001    8.9406 C   0  0  0  0  0  0  0  0  0  0  0  0
    0.7194    1.3483   12.1995 C   0  0  0  0  0  0  0  0  0  0  0  0
   -0.2508    1.0952   13.1374 C   0  0  0  0  0  0  0  0  0  0  0  0
   -1.4304    1.7828   13.1263 C   0  0  0  0  0  0  0  0  0  0  0  0
   -1.6376    2.7384   12.1601 C   0  0  0  0  0  0  0  0  0  0  0  0
   -0.6369    2.9847   11.2081 C   0  0  0  0  0  0  0  0  0  0  0  0
   -0.9561    4.0077   10.2132 C   0  0  0  0  0  0  0  0  0  0  0  0
   -0.0489    5.1311   10.0820 C   0  0  0  0  0  0  0  0  0  0  0  0
    5.8101    5.2198    6.1017 C   0  0  0  0  0  0  0  0  0  0  0  0
    6.1212    6.4208    5.5187 C   0  0  0  0  0  0  0  0  0  0  0  0
    5.8288    7.5648    6.2225 C   0  0  0  0  0  0  0  0  0  0  0  0
    5.2357    7.4807    7.4841 C   0  0  0  0  0  0  0  0  0  0  0  0
    4.9372    6.2572    8.0371 C   0  0  0  0  0  0  0  0  0  0  0  0
    6.7399    6.4116    4.1699 C   0  0  1  0  0  0  0  0  0  0  0  0
    8.1931    6.8215    4.3684 C   0  0  0  0  0  0  0  0  0  0  0  0
    3.7870    2.3626    9.4639 C   0  0  0  0  0  0  0  0  0  0  0  0
    4.4385    1.2689    8.9469 C   0  0  0  0  0  0  0  0  0  0  0  0
    5.3544    1.3901    7.9034 C   0  0  0  0  0  0  0  0  0  0  0  0
    5.2248    5.1111    7.3447 C   0  0  0  0  0  0  0  0  0  0  0  0
    2.8415    2.1766   10.5561 C   0  0  0  0  0  0  0  0  0  0  0  0
    1.5073    2.5707   10.2614 O   0  0  0  0  0  0  0  0  0  0  0  0
    0.5426    2.3066   11.2085 C   0  0  0  0  0  0  0  0  0  0  0  0
    0.1798    5.9698   11.1732 O   0  0  0  0  0  0  0  0  0  0  0  0
    0.5471    5.3825    9.0113 O   0  0  0  0  0  0  0  0  0  0  0  0
    6.6562    5.0973    3.5566 N   0  0  0  0  0  4  0  0  0  0  0  0
    8.7016    7.2678    3.1672 O   0  0  0  0  0  0  0  0  0  0  0  0
  2  1  2  0
 20  1  1  0
  3  2  1  0
  2 21  1  0
 18  3  2  0
  4  5  2  0
 24  4  1  0
  5  6  1  0
  7  6  2  0
  8  7  1  0
  8  9  1  0
 24  8  2  0
  9 10  1  0
 10 25  1  0
 10 26  2  0
 11 12  2  0
 21 11  1  0
 12 13  1  0
 12 16  1  0
 14 13  2  0
 15 14  1  0
 21 15  2  0
 16 17  1  0
 16 27  1  1
 17 28  1  0
 18 19  1  0
 22 18  1  0
 19 20  2  0
 23 22  1  0
 23 24  1  0
M  CHG  1  27   1
M  END
$$$$
