
     RDKit          3D

 28 30  0  0  0  0  0  0  0  0999 V2000
    5.4242    1.4426    9.8185 C   0  0  0  0  0  0  0  0  0  0  0  0
    5.0490    2.4314    8.9234 C   0  0  0  0  0  0  0  0  0  0  0  0
    3.6804    2.6544    8.7885 C   0  0  0  0  0  0  0  0  0  0  0  0
   -1.4182    2.6735    9.5763 C   0  0  0  0  0  0  0  0  0  0  0  0
   -2.7644    2.9408    9.5376 C   0  0  0  0  0  0  0  0  0  0  0  0
   -3.2355    4.1967    9.7923 C   0  0  0  0  0  0  0  0  0  0  0  0
   -2.3417    5.1977   10.0908 C   0  0  0  0  0  0  0  0  0  0  0  0
   -0.9693    4.9089   10.1255 C   0  0  0  0  0  0  0  0  0  0  0  0
   -0.0979    6.0411   10.4372 C   0  0  0  0  0  0  0  0  0  0  0  0
    0.7376    5.9475   11.6184 C   0  0  0  0  0  0  0  0  0  0  0  0
    5.6228    4.1659    7.2915 C   0  0  0  0  0  0  0  0  0  0  0  0
    6.4875    4.9134    6.5349 C   0  0  0  0  0  0  0  0  0  0  0  0
    7.8326    4.6674    6.6758 C   0  0  0  0  0  0  0  0  0  0  0  0
    8.2776    3.6864    7.5646 C   0  0  0  0  0  0  0  0  0  0  0  0
    7.3799    2.9561    8.3079 C   0  0  0  0  0  0  0  0  0  0  0  0
    5.9226    5.9411    5.6255 C   0  0  1  0  0  0  0  0  0  0  0  0
    5.7561    7.2018    6.4636 C   0  0  0  0  0  0  0  0  0  0  0  0
    2.7503    1.9420    9.4950 C   0  0  0  0  0  0  0  0  0  0  0  0
    3.1748    0.9716   10.3703 C   0  0  0  0  0  0  0  0  0  0  0  0
    4.5285    0.6961   10.5549 C   0  0  0  0  0  0  0  0  0  0  0  0
    6.0374    3.1928    8.1750 C   0  0  0  0  0  0  0  0  0  0  0  0
    1.3226    2.1884    9.3441 C   0  0  0  0  0  0  0  0  0  0  0  0
    0.8658    3.4077    9.9159 O   0  0  0  0  0  0  0  0  0  0  0  0
   -0.4873    3.6617    9.8738 C   0  0  0  0  0  0  0  0  0  0  0  0
    2.1259    5.9112   11.4856 O   0  0  0  0  0  0  0  0  0  0  0  0
    0.2551    5.8973   12.7714 O   0  0  0  0  0  0  0  0  0  0  0  0
    6.7997    6.1887    4.4943 N   0  0  0  0  0  4  0  0  0  0  0  0
    5.0759    8.1457    5.7240 O   0  0  0  0  0  0  0  0  0  0  0  0
  2  1  2  0
 20  1  1  0
  3  2  1  0
  2 21  1  0
 18  3  2  0
  4  5  2  0
 24  4  1  0
  5  6  1  0
  7  6  2  0
  8  7  1  0
  8  9  1  0
 24  8  2  0
  9 10  1  0
 10 25  1  0
 10 26  2  0
 11 12  2  0
 21 11  1  0
 12 13  1  0
 12 16  1  0
 14 13  2  0
 15 14  1  0
 21 15  2  0
 16 17  1  0
 16 27  1  6
 17 28  1  0
 18 19  1  0
 22 18  1  0
 19 20  2  0
 23 22  1  0
 23 24  1  0
M  CHG  1  27   1
M  END
$$$$
