
     RDKit          3D

 28 30  0  0  0  0  0  0  0  0999 V2000
    4.2055    2.4288    8.9689 C   0  0  0  0  0  0  0  0  0  0  0  0
    5.1600    3.2802    8.4361 C   0  0  0  0  0  0  0  0  0  0  0  0
    6.4388    2.7508    8.2768 C   0  0  0  0  0  0  0  0  0  0  0  0
   10.5666    0.3645    6.9544 C   0  0  0  0  0  0  0  0  0  0  0  0
   11.8217   -0.1137    6.6697 C   0  0  0  0  0  0  0  0  0  0  0  0
   12.0445   -1.4535    6.5300 C   0  0  0  0  0  0  0  0  0  0  0  0
   10.9918   -2.3249    6.6792 C   0  0  0  0  0  0  0  0  0  0  0  0
    9.7151   -1.8207    6.9690 C   0  0  0  0  0  0  0  0  0  0  0  0
    8.6584   -2.8237    7.0944 C   0  0  0  0  0  0  0  0  0  0  0  0
    7.8254   -3.0782    5.9353 C   0  0  0  0  0  0  0  0  0  0  0  0
    5.3679    5.1859    6.9111 C   0  0  0  0  0  0  0  0  0  0  0  0
    5.1261    6.4705    6.4983 C   0  0  0  0  0  0  0  0  0  0  0  0
    4.3078    7.2480    7.2828 C   0  0  0  0  0  0  0  0  0  0  0  0
    3.7542    6.7253    8.4535 C   0  0  0  0  0  0  0  0  0  0  0  0
    4.0191    5.4309    8.8359 C   0  0  0  0  0  0  0  0  0  0  0  0
    5.7496    6.9349    5.2341 C   0  0  1  0  0  0  0  0  0  0  0  0
    6.9135    7.8291    5.6403 C   0  0  0  0  0  0  0  0  0  0  0  0
    6.7459    1.4637    8.6245 C   0  0  0  0  0  0  0  0  0  0  0  0
    5.7626    0.6600    9.1491 C   0  0  0  0  0  0  0  0  0  0  0  0
    4.4618    1.1244    9.3354 C   0  0  0  0  0  0  0  0  0  0  0  0
    4.8334    4.6477    8.0618 C   0  0  0  0  0  0  0  0  0  0  0  0
    8.0877    0.9242    8.4500 C   0  0  0  0  0  0  0  0  0  0  0  0
    8.2158   -0.0222    7.3964 O   0  0  0  0  0  0  0  0  0  0  0  0
    9.4802   -0.4881    7.1109 C   0  0  0  0  0  0  0  0  0  0  0  0
    6.5518   -3.6225    6.1018 O   0  0  0  0  0  0  0  0  0  0  0  0
    8.2098   -2.8249    4.7721 O   0  0  0  0  0  0  0  0  0  0  0  0
    6.2159    5.8181    4.4307 N   0  0  0  0  0  4  0  0  0  0  0  0
    7.1005    8.7907    4.6703 O   0  0  0  0  0  0  0  0  0  0  0  0
  2  1  2  0
 20  1  1  0
  3  2  1  0
  2 21  1  0
 18  3  2  0
  4  5  2  0
 24  4  1  0
  5  6  1  0
  7  6  2  0
  8  7  1  0
  8  9  1  0
 24  8  2  0
  9 10  1  0
 10 25  1  0
 10 26  2  0
 11 12  2  0
 21 11  1  0
 12 13  1  0
 12 16  1  0
 14 13  2  0
 15 14  1  0
 21 15  2  0
 16 17  1  0
 16 27  1  1
 17 28  1  0
 18 19  1  0
 22 18  1  0
 19 20  2  0
 23 22  1  0
 23 24  1  0
M  CHG  1  27   1
M  END
$$$$
