
     RDKit          3D

 28 30  0  0  0  0  0  0  0  0999 V2000
    3.0474    6.0513   10.9876 C   0  0  0  0  0  0  0  0  0  0  0  0
    3.1072    5.0339   10.0488 C   0  0  0  0  0  0  0  0  0  0  0  0
    2.4178    3.8644   10.3617 C   0  0  0  0  0  0  0  0  0  0  0  0
    0.1708   -0.4072   12.2987 C   0  0  0  0  0  0  0  0  0  0  0  0
   -0.6007   -1.5278   12.1139 C   0  0  0  0  0  0  0  0  0  0  0  0
   -0.7008   -2.1129   10.8844 C   0  0  0  0  0  0  0  0  0  0  0  0
   -0.0169   -1.5640    9.8256 C   0  0  0  0  0  0  0  0  0  0  0  0
    0.7681   -0.4195   10.0308 C   0  0  0  0  0  0  0  0  0  0  0  0
    1.4684    0.0807    8.8486 C   0  0  0  0  0  0  0  0  0  0  0  0
    0.8605    1.1721    8.1126 C   0  0  0  0  0  0  0  0  0  0  0  0
    4.2675    6.4435    8.4156 C   0  0  0  0  0  0  0  0  0  0  0  0
    4.9517    6.6791    7.2514 C   0  0  0  0  0  0  0  0  0  0  0  0
    5.2237    5.6008    6.4434 C   0  0  0  0  0  0  0  0  0  0  0  0
    4.8080    4.3210    6.8170 C   0  0  0  0  0  0  0  0  0  0  0  0
    4.1237    4.1229    7.9935 C   0  0  0  0  0  0  0  0  0  0  0  0
    5.3623    8.0715    6.9432 C   0  0  1  0  0  0  0  0  0  0  0  0
    4.1022    8.7918    6.4820 C   0  0  0  0  0  0  0  0  0  0  0  0
    1.7183    3.7178   11.5283 C   0  0  0  0  0  0  0  0  0  0  0  0
    1.6906    4.7573   12.4265 C   0  0  0  0  0  0  0  0  0  0  0  0
    2.3574    5.9556   12.1778 C   0  0  0  0  0  0  0  0  0  0  0  0
    3.8469    5.1904    8.8058 C   0  0  0  0  0  0  0  0  0  0  0  0
    1.0009    2.4891   11.8402 C   0  0  0  0  0  0  0  0  0  0  0  0
    1.6536    1.2969   11.4219 O   0  0  0  0  0  0  0  0  0  0  0  0
    0.8758    0.1730   11.2508 C   0  0  0  0  0  0  0  0  0  0  0  0
    0.0023    2.0569    8.7659 O   0  0  0  0  0  0  0  0  0  0  0  0
    1.0787    1.3550    6.8945 O   0  0  0  0  0  0  0  0  0  0  0  0
    5.9315    8.7271    8.1079 N   0  0  0  0  0  4  0  0  0  0  0  0
    3.9458    8.5987    5.1260 O   0  0  0  0  0  0  0  0  0  0  0  0
  2  1  2  0
 20  1  1  0
  3  2  1  0
  2 21  1  0
 18  3  2  0
  4  5  2  0
 24  4  1  0
  5  6  1  0
  7  6  2  0
  8  7  1  0
  8  9  1  0
 24  8  2  0
  9 10  1  0
 10 25  1  0
 10 26  2  0
 11 12  2  0
 21 11  1  0
 12 13  1  0
 12 16  1  0
 14 13  2  0
 15 14  1  0
 21 15  2  0
 16 17  1  0
 16 27  1  1
 17 28  1  0
 18 19  1  0
 22 18  1  0
 19 20  2  0
 23 22  1  0
 23 24  1  0
M  CHG  1  27   1
M  END
$$$$
