
     RDKit          3D

 28 30  0  0  0  0  0  0  0  0999 V2000
    5.8878    1.9162    8.2940 C   0  0  0  0  0  0  0  0  0  0  0  0
    5.0610    2.9770    8.6269 C   0  0  0  0  0  0  0  0  0  0  0  0
    3.9337    2.6666    9.3844 C   0  0  0  0  0  0  0  0  0  0  0  0
    0.3577    0.5068   12.3727 C   0  0  0  0  0  0  0  0  0  0  0  0
   -0.6437   -0.0250   13.1470 C   0  0  0  0  0  0  0  0  0  0  0  0
   -0.3553   -0.6831   14.3080 C   0  0  0  0  0  0  0  0  0  0  0  0
    0.9575   -0.8094   14.6959 C   0  0  0  0  0  0  0  0  0  0  0  0
    1.9693   -0.2596   13.8945 C   0  0  0  0  0  0  0  0  0  0  0  0
    3.3313   -0.4322   14.3978 C   0  0  0  0  0  0  0  0  0  0  0  0
    3.9582   -1.7280   14.2245 C   0  0  0  0  0  0  0  0  0  0  0  0
    4.3636    5.2835    8.1856 C   0  0  0  0  0  0  0  0  0  0  0  0
    4.5621    6.5798    7.7864 C   0  0  0  0  0  0  0  0  0  0  0  0
    5.8293    6.9374    7.3915 C   0  0  0  0  0  0  0  0  0  0  0  0
    6.8609    5.9961    7.4057 C   0  0  0  0  0  0  0  0  0  0  0  0
    6.6241    4.7040    7.8133 C   0  0  0  0  0  0  0  0  0  0  0  0
    3.4078    7.5120    7.8152 C   0  0  1  0  0  0  0  0  0  0  0  0
    2.4354    7.0139    6.7543 C   0  0  0  0  0  0  0  0  0  0  0  0
    3.6492    1.3888    9.7821 C   0  0  0  0  0  0  0  0  0  0  0  0
    4.5018    0.3720    9.4254 C   0  0  0  0  0  0  0  0  0  0  0  0
    5.6476    0.6111    8.6690 C   0  0  0  0  0  0  0  0  0  0  0  0
    5.3650    4.3369    8.2083 C   0  0  0  0  0  0  0  0  0  0  0  0
    2.4673    1.0806   10.5757 C   0  0  0  0  0  0  0  0  0  0  0  0
    2.7095    0.9269   11.9685 O   0  0  0  0  0  0  0  0  0  0  0  0
    1.6949    0.3981   12.7355 C   0  0  0  0  0  0  0  0  0  0  0  0
    4.5465   -2.0568   13.0030 O   0  0  0  0  0  0  0  0  0  0  0  0
    3.9932   -2.5774   15.1422 O   0  0  0  0  0  0  0  0  0  0  0  0
    2.7749    7.5328    9.1227 N   0  0  0  0  0  4  0  0  0  0  0  0
    2.9109    7.3660    5.5091 O   0  0  0  0  0  0  0  0  0  0  0  0
  2  1  2  0
 20  1  1  0
  3  2  1  0
  2 21  1  0
 18  3  2  0
  4  5  2  0
 24  4  1  0
  5  6  1  0
  7  6  2  0
  8  7  1  0
  8  9  1  0
 24  8  2  0
  9 10  1  0
 10 25  1  0
 10 26  2  0
 11 12  2  0
 21 11  1  0
 12 13  1  0
 12 16  1  0
 14 13  2  0
 15 14  1  0
 21 15  2  0
 16 17  1  0
 16 27  1  1
 17 28  1  0
 18 19  1  0
 22 18  1  0
 19 20  2  0
 23 22  1  0
 23 24  1  0
M  CHG  1  27   1
M  END
$$$$
