
     RDKit          3D

 28 30  0  0  0  0  0  0  0  0999 V2000
    2.0806    5.6525    9.8778 C   0  0  0  0  0  0  0  0  0  0  0  0
    2.9243    4.6035    9.5496 C   0  0  0  0  0  0  0  0  0  0  0  0
    2.6583    3.3821   10.1647 C   0  0  0  0  0  0  0  0  0  0  0  0
    1.3131   -0.6584   12.8192 C   0  0  0  0  0  0  0  0  0  0  0  0
    1.0820   -1.8156   13.5211 C   0  0  0  0  0  0  0  0  0  0  0  0
    1.5971   -1.9883   14.7737 C   0  0  0  0  0  0  0  0  0  0  0  0
    2.3555   -0.9848   15.3285 C   0  0  0  0  0  0  0  0  0  0  0  0
    2.5817    0.1920   14.5990 C   0  0  0  0  0  0  0  0  0  0  0  0
    3.3867    1.2061   15.2786 C   0  0  0  0  0  0  0  0  0  0  0  0
    2.7295    2.4338   15.6824 C   0  0  0  0  0  0  0  0  0  0  0  0
    4.0074    5.8418    7.7346 C   0  0  0  0  0  0  0  0  0  0  0  0
    4.9907    6.0656    6.8061 C   0  0  0  0  0  0  0  0  0  0  0  0
    6.0356    5.1737    6.7576 C   0  0  0  0  0  0  0  0  0  0  0  0
    6.0719    4.0867    7.6336 C   0  0  0  0  0  0  0  0  0  0  0  0
    5.0671    3.8946    8.5529 C   0  0  0  0  0  0  0  0  0  0  0  0
    4.8722    7.2538    5.9247 C   0  0  1  0  0  0  0  0  0  0  0  0
    3.8723    8.1831    6.6000 C   0  0  0  0  0  0  0  0  0  0  0  0
    1.6246    3.2169   11.0456 C   0  0  0  0  0  0  0  0  0  0  0  0
    0.8168    4.2894   11.3375 C   0  0  0  0  0  0  0  0  0  0  0  0
    1.0254    5.5398   10.7584 C   0  0  0  0  0  0  0  0  0  0  0  0
    4.0211    4.7770    8.6094 C   0  0  0  0  0  0  0  0  0  0  0  0
    1.3582    1.9326   11.6792 C   0  0  0  0  0  0  0  0  0  0  0  0
    2.3139    1.5423   12.6573 O   0  0  0  0  0  0  0  0  0  0  0  0
    2.0743    0.3762   13.3501 C   0  0  0  0  0  0  0  0  0  0  0  0
    3.1781    3.6574   15.1848 O   0  0  0  0  0  0  0  0  0  0  0  0
    1.7598    2.4396   16.4726 O   0  0  0  0  0  0  0  0  0  0  0  0
    6.1534    7.9162    5.7518 N   0  0  0  0  0  4  0  0  0  0  0  0
    3.4886    9.1573    5.7031 O   0  0  0  0  0  0  0  0  0  0  0  0
  2  1  2  0
 20  1  1  0
  3  2  1  0
  2 21  1  0
 18  3  2  0
  4  5  2  0
 24  4  1  0
  5  6  1  0
  7  6  2  0
  8  7  1  0
  8  9  1  0
 24  8  2  0
  9 10  1  0
 10 25  1  0
 10 26  2  0
 11 12  2  0
 21 11  1  0
 12 13  1  0
 12 16  1  0
 14 13  2  0
 15 14  1  0
 21 15  2  0
 16 17  1  0
 16 27  1  1
 17 28  1  0
 18 19  1  0
 22 18  1  0
 19 20  2  0
 23 22  1  0
 23 24  1  0
M  CHG  1  27   1
M  END
$$$$
