
     RDKit          3D

 28 30  0  0  0  0  0  0  0  0999 V2000
    4.7155    0.9460    8.6071 C   0  0  0  0  0  0  0  0  0  0  0  0
    4.6150    2.3170    8.7804 C   0  0  0  0  0  0  0  0  0  0  0  0
    3.6790    2.7538    9.7152 C   0  0  0  0  0  0  0  0  0  0  0  0
   -0.5003    3.0292   12.8271 C   0  0  0  0  0  0  0  0  0  0  0  0
   -1.4045    3.5776   13.7028 C   0  0  0  0  0  0  0  0  0  0  0  0
   -1.8296    4.8664   13.5530 C   0  0  0  0  0  0  0  0  0  0  0  0
   -1.3389    5.6148   12.5096 C   0  0  0  0  0  0  0  0  0  0  0  0
   -0.4162    5.0399   11.6228 C   0  0  0  0  0  0  0  0  0  0  0  0
    0.0360    5.9094   10.5375 C   0  0  0  0  0  0  0  0  0  0  0  0
    1.4553    6.1894   10.4408 C   0  0  0  0  0  0  0  0  0  0  0  0
    4.9133    4.4240    7.5670 C   0  0  0  0  0  0  0  0  0  0  0  0
    5.6251    5.3382    6.8344 C   0  0  0  0  0  0  0  0  0  0  0  0
    6.9381    5.0447    6.5525 C   0  0  0  0  0  0  0  0  0  0  0  0
    7.5041    3.8518    7.0075 C   0  0  0  0  0  0  0  0  0  0  0  0
    6.7587    2.9583    7.7408 C   0  0  0  0  0  0  0  0  0  0  0  0
    4.9421    6.5833    6.4035 C   0  0  1  0  0  0  0  0  0  0  0  0
    5.1113    7.5756    7.5463 C   0  0  0  0  0  0  0  0  0  0  0  0
    2.8969    1.8859   10.4273 C   0  0  0  0  0  0  0  0  0  0  0  0
    3.0355    0.5350   10.2179 C   0  0  0  0  0  0  0  0  0  0  0  0
    3.9523    0.0287    9.2984 C   0  0  0  0  0  0  0  0  0  0  0  0
    5.4494    3.2406    8.0269 C   0  0  0  0  0  0  0  0  0  0  0  0
    1.9238    2.3583   11.4028 C   0  0  0  0  0  0  0  0  0  0  0  0
    0.9228    3.2196   10.8752 O   0  0  0  0  0  0  0  0  0  0  0  0
    0.0154    3.7571   11.7613 C   0  0  0  0  0  0  0  0  0  0  0  0
    2.1011    6.8676   11.4748 O   0  0  0  0  0  0  0  0  0  0  0  0
    2.1353    5.8411    9.4503 O   0  0  0  0  0  0  0  0  0  0  0  0
    5.5189    7.1082    5.1779 N   0  0  0  0  0  4  0  0  0  0  0  0
    4.1394    7.3379    8.4947 O   0  0  0  0  0  0  0  0  0  0  0  0
  2  1  2  0
 20  1  1  0
  3  2  1  0
  2 21  1  0
 18  3  2  0
  4  5  2  0
 24  4  1  0
  5  6  1  0
  7  6  2  0
  8  7  1  0
  8  9  1  0
 24  8  2  0
  9 10  1  0
 10 25  1  0
 10 26  2  0
 11 12  2  0
 21 11  1  0
 12 13  1  0
 12 16  1  0
 14 13  2  0
 15 14  1  0
 21 15  2  0
 16 17  1  0
 16 27  1  6
 17 28  1  0
 18 19  1  0
 22 18  1  0
 19 20  2  0
 23 22  1  0
 23 24  1  0
M  CHG  1  27   1
M  END
$$$$
