
     RDKit          3D

 28 30  0  0  0  0  0  0  0  0999 V2000
    1.2342    0.9735   11.8727 C   0  0  0  0  0  0  0  0  0  0  0  0
    1.2958    2.1416   11.1300 C   0  0  0  0  0  0  0  0  0  0  0  0
    2.2142    2.1590   10.0825 C   0  0  0  0  0  0  0  0  0  0  0  0
    6.6212    0.8117    7.6645 C   0  0  0  0  0  0  0  0  0  0  0  0
    7.7381    0.7142    6.8720 C   0  0  0  0  0  0  0  0  0  0  0  0
    8.3411    1.8329    6.3728 C   0  0  0  0  0  0  0  0  0  0  0  0
    7.8139    3.0665    6.6731 C   0  0  0  0  0  0  0  0  0  0  0  0
    6.6728    3.1496    7.4850 C   0  0  0  0  0  0  0  0  0  0  0  0
    6.1963    4.5043    7.7602 C   0  0  0  0  0  0  0  0  0  0  0  0
    5.0182    4.9649    7.0517 C   0  0  0  0  0  0  0  0  0  0  0  0
   -0.0819    4.0319   10.4024 C   0  0  0  0  0  0  0  0  0  0  0  0
   -0.8793    5.1290   10.6016 C   0  0  0  0  0  0  0  0  0  0  0  0
   -1.1622    5.4833   11.8993 C   0  0  0  0  0  0  0  0  0  0  0  0
   -0.6445    4.7364   12.9597 C   0  0  0  0  0  0  0  0  0  0  0  0
    0.1520    3.6408   12.7211 C   0  0  0  0  0  0  0  0  0  0  0  0
   -1.3923    5.8542    9.4127 C   0  0  1  0  0  0  0  0  0  0  0  0
   -0.2135    6.6418    8.8567 C   0  0  0  0  0  0  0  0  0  0  0  0
    3.0158    1.0883    9.7950 C   0  0  0  0  0  0  0  0  0  0  0  0
    2.9157   -0.0471   10.5625 C   0  0  0  0  0  0  0  0  0  0  0  0
    2.0184   -0.1335   11.6254 C   0  0  0  0  0  0  0  0  0  0  0  0
    0.4405    3.2793   11.4319 C   0  0  0  0  0  0  0  0  0  0  0  0
    3.9700    1.1213    8.6950 C   0  0  0  0  0  0  0  0  0  0  0  0
    4.9427    2.1550    8.7822 O   0  0  0  0  0  0  0  0  0  0  0  0
    6.0627    2.0425    7.9884 C   0  0  0  0  0  0  0  0  0  0  0  0
    4.8459    4.6395    5.7061 O   0  0  0  0  0  0  0  0  0  0  0  0
    4.1350    5.6541    7.6083 O   0  0  0  0  0  0  0  0  0  0  0  0
   -1.9129    4.9358    8.4148 N   0  0  0  0  0  4  0  0  0  0  0  0
   -0.1696    7.8762    9.4691 O   0  0  0  0  0  0  0  0  0  0  0  0
  2  1  2  0
 20  1  1  0
  3  2  1  0
  2 21  1  0
 18  3  2  0
  4  5  2  0
 24  4  1  0
  5  6  1  0
  7  6  2  0
  8  7  1  0
  8  9  1  0
 24  8  2  0
  9 10  1  0
 10 25  1  0
 10 26  2  0
 11 12  2  0
 21 11  1  0
 12 13  1  0
 12 16  1  0
 14 13  2  0
 15 14  1  0
 21 15  2  0
 16 17  1  0
 16 27  1  6
 17 28  1  0
 18 19  1  0
 22 18  1  0
 19 20  2  0
 23 22  1  0
 23 24  1  0
M  CHG  1  27   1
M  END
$$$$
