
     RDKit          3D

 28 30  0  0  0  0  0  0  0  0999 V2000
    5.3376    1.5005    9.6167 C   0  0  0  0  0  0  0  0  0  0  0  0
    4.7529    2.6324    9.0720 C   0  0  0  0  0  0  0  0  0  0  0  0
    3.3984    2.8173    9.3407 C   0  0  0  0  0  0  0  0  0  0  0  0
   -1.5332    2.0742    9.2960 C   0  0  0  0  0  0  0  0  0  0  0  0
   -2.9041    2.1462    9.3167 C   0  0  0  0  0  0  0  0  0  0  0  0
   -3.5384    3.3191    9.6106 C   0  0  0  0  0  0  0  0  0  0  0  0
   -2.7847    4.4348    9.8883 C   0  0  0  0  0  0  0  0  0  0  0  0
   -1.3849    4.3453    9.8621 C   0  0  0  0  0  0  0  0  0  0  0  0
   -0.6716    5.5875   10.1560 C   0  0  0  0  0  0  0  0  0  0  0  0
    0.1163    5.6446   11.3718 C   0  0  0  0  0  0  0  0  0  0  0  0
    4.8907    4.6591    7.7029 C   0  0  0  0  0  0  0  0  0  0  0  0
    5.5369    5.5795    6.9192 C   0  0  0  0  0  0  0  0  0  0  0  0
    6.8808    5.3949    6.6969 C   0  0  0  0  0  0  0  0  0  0  0  0
    7.5419    4.3015    7.2606 C   0  0  0  0  0  0  0  0  0  0  0  0
    6.8603    3.3984    8.0425 C   0  0  0  0  0  0  0  0  0  0  0  0
    4.7536    6.7152    6.3722 C   0  0  1  0  0  0  0  0  0  0  0  0
    4.8166    7.8168    7.4219 C   0  0  0  0  0  0  0  0  0  0  0  0
    2.6764    1.9361   10.0982 C   0  0  0  0  0  0  0  0  0  0  0  0
    3.3037    0.8284   10.6155 C   0  0  0  0  0  0  0  0  0  0  0  0
    4.6562    0.5815   10.3867 C   0  0  0  0  0  0  0  0  0  0  0  0
    5.5209    3.5725    8.2700 C   0  0  0  0  0  0  0  0  0  0  0  0
    1.2609    2.1444   10.3718 C   0  0  0  0  0  0  0  0  0  0  0  0
    0.6350    3.1247    9.5536 O   0  0  0  0  0  0  0  0  0  0  0  0
   -0.7411    3.1826    9.5710 C   0  0  0  0  0  0  0  0  0  0  0  0
   -0.4697    5.3174   12.5948 O   0  0  0  0  0  0  0  0  0  0  0  0
    1.3211    5.9813   11.3677 O   0  0  0  0  0  0  0  0  0  0  0  0
    5.3011    7.1779    5.1087 N   0  0  0  0  0  4  0  0  0  0  0  0
    4.0838    7.4294    8.5235 O   0  0  0  0  0  0  0  0  0  0  0  0
  2  1  2  0
 20  1  1  0
  3  2  1  0
  2 21  1  0
 18  3  2  0
  4  5  2  0
 24  4  1  0
  5  6  1  0
  7  6  2  0
  8  7  1  0
  8  9  1  0
 24  8  2  0
  9 10  1  0
 10 25  1  0
 10 26  2  0
 11 12  2  0
 21 11  1  0
 12 13  1  0
 12 16  1  0
 14 13  2  0
 15 14  1  0
 21 15  2  0
 16 17  1  0
 16 27  1  6
 17 28  1  0
 18 19  1  0
 22 18  1  0
 19 20  2  0
 23 22  1  0
 23 24  1  0
M  CHG  1  27   1
M  END
$$$$
