
     RDKit          3D

 28 30  0  0  0  0  0  0  0  0999 V2000
    4.8895    1.1256    8.6155 C   0  0  0  0  0  0  0  0  0  0  0  0
    4.5457    2.4679    8.6072 C   0  0  0  0  0  0  0  0  0  0  0  0
    3.3172    2.7937    9.1777 C   0  0  0  0  0  0  0  0  0  0  0  0
   -1.0455    3.0809   11.6787 C   0  0  0  0  0  0  0  0  0  0  0  0
   -2.1653    3.4870   12.3614 C   0  0  0  0  0  0  0  0  0  0  0  0
   -2.4072    4.8124   12.5824 C   0  0  0  0  0  0  0  0  0  0  0  0
   -1.5111    5.7426   12.1117 C   0  0  0  0  0  0  0  0  0  0  0  0
   -0.3722    5.3119   11.4150 C   0  0  0  0  0  0  0  0  0  0  0  0
    0.5127    6.3753   10.9413 C   0  0  0  0  0  0  0  0  0  0  0  0
    1.8952    6.3504   11.3773 C   0  0  0  0  0  0  0  0  0  0  0  0
    4.9285    4.7184    7.7188 C   0  0  0  0  0  0  0  0  0  0  0  0
    5.6876    5.7144    7.1612 C   0  0  0  0  0  0  0  0  0  0  0  0
    7.0118    5.4421    6.9123 C   0  0  0  0  0  0  0  0  0  0  0  0
    7.5417    4.1886    7.2256 C   0  0  0  0  0  0  0  0  0  0  0  0
    6.7493    3.2136    7.7851 C   0  0  0  0  0  0  0  0  0  0  0  0
    5.0399    7.0181    6.8727 C   0  0  1  0  0  0  0  0  0  0  0  0
    4.6011    6.9591    5.4155 C   0  0  0  0  0  0  0  0  0  0  0  0
    2.4884    1.8488    9.7182 C   0  0  0  0  0  0  0  0  0  0  0  0
    2.8762    0.5307    9.7012 C   0  0  0  0  0  0  0  0  0  0  0  0
    4.0919    0.1341    9.1469 C   0  0  0  0  0  0  0  0  0  0  0  0
    5.4284    3.4741    8.0368 C   0  0  0  0  0  0  0  0  0  0  0  0
    1.2075    2.2057   10.3129 C   0  0  0  0  0  0  0  0  0  0  0  0
    1.0077    3.6009   10.5019 O   0  0  0  0  0  0  0  0  0  0  0  0
   -0.1197    3.9943   11.1885 C   0  0  0  0  0  0  0  0  0  0  0  0
    2.1953    6.4154   12.7382 O   0  0  0  0  0  0  0  0  0  0  0  0
    2.8459    6.2714   10.5681 O   0  0  0  0  0  0  0  0  0  0  0  0
    3.9001    7.2487    7.7433 N   0  0  0  0  0  4  0  0  0  0  0  0
    5.7197    6.8930    4.6124 O   0  0  0  0  0  0  0  0  0  0  0  0
  2  1  2  0
 20  1  1  0
  3  2  1  0
  2 21  1  0
 18  3  2  0
  4  5  2  0
 24  4  1  0
  5  6  1  0
  7  6  2  0
  8  7  1  0
  8  9  1  0
 24  8  2  0
  9 10  1  0
 10 25  1  0
 10 26  2  0
 11 12  2  0
 21 11  1  0
 12 13  1  0
 12 16  1  0
 14 13  2  0
 15 14  1  0
 21 15  2  0
 16 17  1  0
 16 27  1  1
 17 28  1  0
 18 19  1  0
 22 18  1  0
 19 20  2  0
 23 22  1  0
 23 24  1  0
M  CHG  1  27   1
M  END
$$$$
