
     RDKit          3D

 28 30  0  0  0  0  0  0  0  0999 V2000
    6.8112    2.7458    7.7953 C   0  0  0  0  0  0  0  0  0  0  0  0
    5.5837    3.3599    7.9853 C   0  0  0  0  0  0  0  0  0  0  0  0
    4.5826    2.5750    8.5533 C   0  0  0  0  0  0  0  0  0  0  0  0
    1.6069   -0.7989   10.7884 C   0  0  0  0  0  0  0  0  0  0  0  0
    0.6260   -1.5234   11.4192 C   0  0  0  0  0  0  0  0  0  0  0  0
    0.5062   -1.5024   12.7792 C   0  0  0  0  0  0  0  0  0  0  0  0
    1.3848   -0.7435   13.5155 C   0  0  0  0  0  0  0  0  0  0  0  0
    2.3810   -0.0080   12.8562 C   0  0  0  0  0  0  0  0  0  0  0  0
    3.2568    0.7791   13.7232 C   0  0  0  0  0  0  0  0  0  0  0  0
    4.5434    0.2133   14.0793 C   0  0  0  0  0  0  0  0  0  0  0  0
    5.9683    5.2569    6.4839 C   0  0  0  0  0  0  0  0  0  0  0  0
    5.8289    6.5581    6.0759 C   0  0  0  0  0  0  0  0  0  0  0  0
    5.0446    7.3856    6.8437 C   0  0  0  0  0  0  0  0  0  0  0  0
    4.4220    6.8949    7.9935 C   0  0  0  0  0  0  0  0  0  0  0  0
    4.5846    5.5825    8.3716 C   0  0  0  0  0  0  0  0  0  0  0  0
    6.5197    6.9865    4.8342 C   0  0  1  0  0  0  0  0  0  0  0  0
    7.6847    7.8609    5.2786 C   0  0  0  0  0  0  0  0  0  0  0  0
    4.7890    1.2696    8.9067 C   0  0  0  0  0  0  0  0  0  0  0  0
    6.0252    0.7075    8.6972 C   0  0  0  0  0  0  0  0  0  0  0  0
    7.0721    1.4347    8.1336 C   0  0  0  0  0  0  0  0  0  0  0  0
    5.3644    4.7495    7.6141 C   0  0  0  0  0  0  0  0  0  0  0  0
    3.7323    0.4625    9.5014 C   0  0  0  0  0  0  0  0  0  0  0  0
    3.4996    0.7111   10.8821 O   0  0  0  0  0  0  0  0  0  0  0  0
    2.5109   -0.0208   11.5019 C   0  0  0  0  0  0  0  0  0  0  0  0
    5.7165    0.8173   13.6264 O   0  0  0  0  0  0  0  0  0  0  0  0
    4.6451   -0.8121   14.7885 O   0  0  0  0  0  0  0  0  0  0  0  0
    6.9958    5.8457    4.0711 N   0  0  0  0  0  4  0  0  0  0  0  0
    7.2060    9.1094    5.6146 O   0  0  0  0  0  0  0  0  0  0  0  0
  2  1  2  0
 20  1  1  0
  3  2  1  0
  2 21  1  0
 18  3  2  0
  4  5  2  0
 24  4  1  0
  5  6  1  0
  7  6  2  0
  8  7  1  0
  8  9  1  0
 24  8  2  0
  9 10  1  0
 10 25  1  0
 10 26  2  0
 11 12  2  0
 21 11  1  0
 12 13  1  0
 12 16  1  0
 14 13  2  0
 15 14  1  0
 21 15  2  0
 16 17  1  0
 16 27  1  1
 17 28  1  0
 18 19  1  0
 22 18  1  0
 19 20  2  0
 23 22  1  0
 23 24  1  0
M  CHG  1  27   1
M  END
$$$$
