
     RDKit          3D

 18 17  0  0  0  0  0  0  0  0999 V2000
   -1.5099   -1.5818  -18.6659 C   0  0  0  0  0  0  0  0  0  0  0  0
   -0.3485   -1.2260  -19.0349 O   0  0  0  0  0  0  0  0  0  0  0  0
   -2.5080   -0.6390  -18.8354 O   0  0  0  0  0  0  0  0  0  0  0  0
   -1.6893   -2.9242  -18.1074 C   0  0  0  0  0  0  0  0  0  0  0  0
   -2.8855   -3.0478  -17.2103 C   0  0  0  0  0  0  0  0  0  0  0  0
   -3.8983   -4.0324  -17.6736 C   0  0  0  0  0  0  0  0  0  0  0  0
   -3.8065   -5.3342  -16.9335 C   0  0  0  0  0  0  0  0  0  0  0  0
   -4.5175   -6.4066  -17.6949 C   0  0  0  0  0  0  0  0  0  0  0  0
   -5.9945   -6.4712  -17.3361 C   0  0  0  0  0  0  0  0  0  0  0  0
   -6.5672   -7.6725  -18.0730 C   0  0  0  0  0  0  0  0  0  0  0  0
   -8.0760   -7.7749  -17.7818 C   0  0  0  0  0  0  0  0  0  0  0  0
   -8.5176   -9.0726  -18.3893 C   0  0  0  0  0  0  0  0  0  0  0  0
   -9.9995   -9.3789  -18.1131 C   0  0  0  0  0  0  0  0  0  0  0  0
  -10.6562   -9.9111  -19.3258 C   0  0  0  0  0  0  0  0  0  0  0  0
  -11.5944  -11.0365  -19.1858 C   0  0  0  0  0  0  0  0  0  0  0  0
  -12.1362  -11.7129  -20.3649 C   0  0  0  0  0  0  0  0  0  0  0  0
  -13.2209  -12.7041  -20.2401 C   0  0  0  0  0  0  0  0  0  0  0  0
  -13.9949  -12.6994  -21.5849 C   0  0  0  0  0  0  0  0  0  0  0  0
  1  2  2  0
  1  3  1  0
  1  4  1  0
  4  5  1  0
  5  6  1  0
  6  7  1  0
  7  8  1  0
  8  9  1  0
  9 10  1  0
 10 11  1  0
 11 12  1  0
 12 13  1  0
 13 14  1  0
 14 15  1  0
 15 16  1  0
 16 17  1  0
 17 18  1  0
M  END
$$$$
