
     RDKit          3D

 18 17  0  0  0  0  0  0  0  0999 V2000
   -0.9982   -1.8948  -17.2362 C   0  0  0  0  0  0  0  0  0  0  0  0
   -0.3565   -2.5812  -16.3825 O   0  0  0  0  0  0  0  0  0  0  0  0
   -0.7543   -0.5332  -17.2163 O   0  0  0  0  0  0  0  0  0  0  0  0
   -1.9172   -2.5844  -18.1450 C   0  0  0  0  0  0  0  0  0  0  0  0
   -2.1055   -4.0374  -17.8219 C   0  0  0  0  0  0  0  0  0  0  0  0
   -3.0057   -4.2954  -16.6674 C   0  0  0  0  0  0  0  0  0  0  0  0
   -4.4246   -4.5319  -17.0939 C   0  0  0  0  0  0  0  0  0  0  0  0
   -4.6132   -5.9666  -17.4698 C   0  0  0  0  0  0  0  0  0  0  0  0
   -5.9608   -6.5004  -17.0078 C   0  0  0  0  0  0  0  0  0  0  0  0
   -6.5283   -7.3056  -18.1669 C   0  0  0  0  0  0  0  0  0  0  0  0
   -7.9001   -7.8782  -17.7640 C   0  0  0  0  0  0  0  0  0  0  0  0
   -8.3747   -8.6627  -18.9504 C   0  0  0  0  0  0  0  0  0  0  0  0
   -9.7697   -9.2735  -18.7336 C   0  0  0  0  0  0  0  0  0  0  0  0
  -10.1877  -10.0513  -19.9191 C   0  0  0  0  0  0  0  0  0  0  0  0
  -11.5791  -10.5242  -19.9999 C   0  0  0  0  0  0  0  0  0  0  0  0
  -11.8862  -11.9549  -20.0099 C   0  0  0  0  0  0  0  0  0  0  0  0
  -13.2614  -12.4380  -19.7864 C   0  0  0  0  0  0  0  0  0  0  0  0
  -13.7635  -13.0143  -21.1367 C   0  0  0  0  0  0  0  0  0  0  0  0
  1  2  2  0
  1  3  1  0
  1  4  1  0
  4  5  1  0
  5  6  1  0
  6  7  1  0
  7  8  1  0
  8  9  1  0
  9 10  1  0
 10 11  1  0
 11 12  1  0
 12 13  1  0
 13 14  1  0
 14 15  1  0
 15 16  1  0
 16 17  1  0
 17 18  1  0
M  END
$$$$
