
     RDKit          3D

 18 17  0  0  0  0  0  0  0  0999 V2000
   -1.5508   -2.2320  -17.0760 C   0  0  0  0  0  0  0  0  0  0  0  0
   -0.4818   -2.8712  -16.8308 O   0  0  0  0  0  0  0  0  0  0  0  0
   -1.4958   -0.8666  -16.8608 O   0  0  0  0  0  0  0  0  0  0  0  0
   -2.7200   -2.9748  -17.5531 C   0  0  0  0  0  0  0  0  0  0  0  0
   -2.4570   -4.4357  -17.7706 C   0  0  0  0  0  0  0  0  0  0  0  0
   -3.1955   -5.3344  -16.8448 C   0  0  0  0  0  0  0  0  0  0  0  0
   -4.6830   -5.1994  -16.9867 C   0  0  0  0  0  0  0  0  0  0  0  0
   -5.2685   -6.4840  -17.4787 C   0  0  0  0  0  0  0  0  0  0  0  0
   -6.7638   -6.3644  -17.7319 C   0  0  0  0  0  0  0  0  0  0  0  0
   -7.2284   -7.7233  -18.2335 C   0  0  0  0  0  0  0  0  0  0  0  0
   -8.7580   -7.7032  -18.4115 C   0  0  0  0  0  0  0  0  0  0  0  0
   -9.1210   -9.0581  -18.9412 C   0  0  0  0  0  0  0  0  0  0  0  0
  -10.6216   -9.1863  -19.2539 C   0  0  0  0  0  0  0  0  0  0  0  0
  -11.1510  -10.4709  -18.7491 C   0  0  0  0  0  0  0  0  0  0  0  0
  -12.1589  -11.1840  -19.5502 C   0  0  0  0  0  0  0  0  0  0  0  0
  -11.8270  -11.7175  -20.8718 C   0  0  0  0  0  0  0  0  0  0  0  0
  -12.3764  -13.0069  -21.3301 C   0  0  0  0  0  0  0  0  0  0  0  0
  -13.7976  -12.7218  -21.8839 C   0  0  0  0  0  0  0  0  0  0  0  0
  1  2  2  0
  1  3  1  0
  1  4  1  0
  4  5  1  0
  5  6  1  0
  6  7  1  0
  7  8  1  0
  8  9  1  0
  9 10  1  0
 10 11  1  0
 11 12  1  0
 12 13  1  0
 13 14  1  0
 14 15  1  0
 15 16  1  0
 16 17  1  0
 17 18  1  0
M  END
$$$$
