
     RDKit          3D

 18 17  0  0  0  0  0  0  0  0999 V2000
   -1.0768   -1.9990  -16.8273 C   0  0  0  0  0  0  0  0  0  0  0  0
   -0.6601   -1.7061  -17.9901 O   0  0  0  0  0  0  0  0  0  0  0  0
   -0.4318   -1.3634  -15.7815 O   0  0  0  0  0  0  0  0  0  0  0  0
   -2.1756   -2.9589  -16.6957 C   0  0  0  0  0  0  0  0  0  0  0  0
   -2.6580   -3.5049  -18.0072 C   0  0  0  0  0  0  0  0  0  0  0  0
   -2.9020   -4.9713  -18.0064 C   0  0  0  0  0  0  0  0  0  0  0  0
   -4.1538   -5.3394  -17.2658 C   0  0  0  0  0  0  0  0  0  0  0  0
   -4.5686   -6.7309  -17.6224 C   0  0  0  0  0  0  0  0  0  0  0  0
   -5.8888   -7.1127  -16.9702 C   0  0  0  0  0  0  0  0  0  0  0  0
   -6.6744   -7.8979  -18.0097 C   0  0  0  0  0  0  0  0  0  0  0  0
   -8.0261   -8.3258  -17.4081 C   0  0  0  0  0  0  0  0  0  0  0  0
   -9.0319   -8.1453  -18.5053 C   0  0  0  0  0  0  0  0  0  0  0  0
   -9.7329   -9.4608  -18.8850 C   0  0  0  0  0  0  0  0  0  0  0  0
  -10.8382   -9.2072  -19.8332 C   0  0  0  0  0  0  0  0  0  0  0  0
  -12.0890   -9.9679  -19.6809 C   0  0  0  0  0  0  0  0  0  0  0  0
  -12.2638  -11.2639  -20.3377 C   0  0  0  0  0  0  0  0  0  0  0  0
  -13.3882  -11.5013  -21.2618 C   0  0  0  0  0  0  0  0  0  0  0  0
  -13.1760  -12.9084  -21.8804 C   0  0  0  0  0  0  0  0  0  0  0  0
  1  2  2  0
  1  3  1  0
  1  4  1  0
  4  5  1  0
  5  6  1  0
  6  7  1  0
  7  8  1  0
  8  9  1  0
  9 10  1  0
 10 11  1  0
 11 12  1  0
 12 13  1  0
 13 14  1  0
 14 15  1  0
 15 16  1  0
 16 17  1  0
 17 18  1  0
M  END
$$$$
