
     RDKit          3D

 18 17  0  0  0  0  0  0  0  0999 V2000
   -0.6559   -1.5038  -17.1876 C   0  0  0  0  0  0  0  0  0  0  0  0
    0.0292   -2.3814  -16.5777 O   0  0  0  0  0  0  0  0  0  0  0  0
    0.0086   -0.3294  -17.4924 O   0  0  0  0  0  0  0  0  0  0  0  0
   -2.0541   -1.8016  -17.5081 C   0  0  0  0  0  0  0  0  0  0  0  0
   -2.3834   -3.2646  -17.4629 C   0  0  0  0  0  0  0  0  0  0  0  0
   -3.7436   -3.5695  -16.9466 C   0  0  0  0  0  0  0  0  0  0  0  0
   -4.3891   -4.7076  -17.6810 C   0  0  0  0  0  0  0  0  0  0  0  0
   -5.0290   -5.6461  -16.7089 C   0  0  0  0  0  0  0  0  0  0  0  0
   -5.3367   -6.9944  -17.3426 C   0  0  0  0  0  0  0  0  0  0  0  0
   -6.8420   -7.0387  -17.5579 C   0  0  0  0  0  0  0  0  0  0  0  0
   -7.2514   -8.4583  -17.9925 C   0  0  0  0  0  0  0  0  0  0  0  0
   -8.7476   -8.4359  -18.0878 C   0  0  0  0  0  0  0  0  0  0  0  0
   -9.2779   -9.3038  -19.2418 C   0  0  0  0  0  0  0  0  0  0  0  0
  -10.2450  -10.3029  -18.7402 C   0  0  0  0  0  0  0  0  0  0  0  0
  -11.0507  -11.0578  -19.7135 C   0  0  0  0  0  0  0  0  0  0  0  0
  -12.5014  -11.1716  -19.5592 C   0  0  0  0  0  0  0  0  0  0  0  0
  -13.2640  -12.2020  -20.2881 C   0  0  0  0  0  0  0  0  0  0  0  0
  -14.7591  -11.9992  -19.9256 C   0  0  0  0  0  0  0  0  0  0  0  0
  1  2  2  0
  1  3  1  0
  1  4  1  0
  4  5  1  0
  5  6  1  0
  6  7  1  0
  7  8  1  0
  8  9  1  0
  9 10  1  0
 10 11  1  0
 11 12  1  0
 12 13  1  0
 13 14  1  0
 14 15  1  0
 15 16  1  0
 16 17  1  0
 17 18  1  0
M  END
$$$$
