
     RDKit          3D

 18 17  0  0  0  0  0  0  0  0999 V2000
   -2.1498   -1.1025  -17.2762 C   0  0  0  0  0  0  0  0  0  0  0  0
   -2.3077    0.1572  -17.2738 O   0  0  0  0  0  0  0  0  0  0  0  0
   -1.1351   -1.5780  -18.0874 O   0  0  0  0  0  0  0  0  0  0  0  0
   -3.0317   -1.9229  -16.4422 C   0  0  0  0  0  0  0  0  0  0  0  0
   -2.5974   -3.3549  -16.3346 C   0  0  0  0  0  0  0  0  0  0  0  0
   -3.6691   -4.3425  -16.6277 C   0  0  0  0  0  0  0  0  0  0  0  0
   -3.1284   -5.6084  -17.2246 C   0  0  0  0  0  0  0  0  0  0  0  0
   -4.1199   -6.7154  -17.0603 C   0  0  0  0  0  0  0  0  0  0  0  0
   -5.3686   -6.4859  -17.8982 C   0  0  0  0  0  0  0  0  0  0  0  0
   -6.0501   -7.8386  -18.0398 C   0  0  0  0  0  0  0  0  0  0  0  0
   -7.5661   -7.6281  -18.2108 C   0  0  0  0  0  0  0  0  0  0  0  0
   -8.0940   -8.9199  -18.7593 C   0  0  0  0  0  0  0  0  0  0  0  0
   -9.6175   -8.8925  -18.9693 C   0  0  0  0  0  0  0  0  0  0  0  0
  -10.0866  -10.1695  -19.5474 C   0  0  0  0  0  0  0  0  0  0  0  0
  -11.5156  -10.3182  -19.8675 C   0  0  0  0  0  0  0  0  0  0  0  0
  -12.3328  -11.3315  -19.1991 C   0  0  0  0  0  0  0  0  0  0  0  0
  -13.0351  -12.3720  -19.9729 C   0  0  0  0  0  0  0  0  0  0  0  0
  -14.4990  -12.4068  -19.4595 C   0  0  0  0  0  0  0  0  0  0  0  0
  1  2  2  0
  1  3  1  0
  1  4  1  0
  4  5  1  0
  5  6  1  0
  6  7  1  0
  7  8  1  0
  8  9  1  0
  9 10  1  0
 10 11  1  0
 11 12  1  0
 12 13  1  0
 13 14  1  0
 14 15  1  0
 15 16  1  0
 16 17  1  0
 17 18  1  0
M  END
$$$$
