
     RDKit          3D

 18 17  0  0  0  0  0  0  0  0999 V2000
   -0.9168   -2.2265  -17.5043 C   0  0  0  0  0  0  0  0  0  0  0  0
    0.1514   -1.8412  -18.0719 O   0  0  0  0  0  0  0  0  0  0  0  0
   -2.0831   -1.6363  -17.9574 O   0  0  0  0  0  0  0  0  0  0  0  0
   -0.8258   -3.2361  -16.4467 C   0  0  0  0  0  0  0  0  0  0  0  0
   -2.1512   -3.8229  -16.0593 C   0  0  0  0  0  0  0  0  0  0  0  0
   -2.7435   -4.7241  -17.0824 C   0  0  0  0  0  0  0  0  0  0  0  0
   -4.2413   -4.6433  -17.1132 C   0  0  0  0  0  0  0  0  0  0  0  0
   -4.8150   -5.9513  -17.5553 C   0  0  0  0  0  0  0  0  0  0  0  0
   -6.3360   -5.9258  -17.5713 C   0  0  0  0  0  0  0  0  0  0  0  0
   -6.7861   -7.2705  -18.1220 C   0  0  0  0  0  0  0  0  0  0  0  0
   -8.3249   -7.3336  -18.1131 C   0  0  0  0  0  0  0  0  0  0  0  0
   -8.6777   -8.6712  -18.6916 C   0  0  0  0  0  0  0  0  0  0  0  0
  -10.1973   -8.8924  -18.7816 C   0  0  0  0  0  0  0  0  0  0  0  0
  -10.4977  -10.1863  -19.4301 C   0  0  0  0  0  0  0  0  0  0  0  0
  -11.9053  -10.5774  -19.6093 C   0  0  0  0  0  0  0  0  0  0  0  0
  -12.2657  -11.7192  -20.4507 C   0  0  0  0  0  0  0  0  0  0  0  0
  -13.6778  -12.0632  -20.6996 C   0  0  0  0  0  0  0  0  0  0  0  0
  -13.7158  -13.5648  -21.0889 C   0  0  0  0  0  0  0  0  0  0  0  0
  1  2  2  0
  1  3  1  0
  1  4  1  0
  4  5  1  0
  5  6  1  0
  6  7  1  0
  7  8  1  0
  8  9  1  0
  9 10  1  0
 10 11  1  0
 11 12  1  0
 12 13  1  0
 13 14  1  0
 14 15  1  0
 15 16  1  0
 16 17  1  0
 17 18  1  0
M  END
$$$$
