
     RDKit          3D

 18 17  0  0  0  0  0  0  0  0999 V2000
   -1.0724   -2.2087  -17.3195 C   0  0  0  0  0  0  0  0  0  0  0  0
   -1.0995   -1.0902  -17.9194 O   0  0  0  0  0  0  0  0  0  0  0  0
    0.1804   -2.6539  -16.9375 O   0  0  0  0  0  0  0  0  0  0  0  0
   -2.3359   -2.9133  -17.0891 C   0  0  0  0  0  0  0  0  0  0  0  0
   -2.1598   -4.3158  -16.5862 C   0  0  0  0  0  0  0  0  0  0  0  0
   -3.4331   -5.0257  -16.2955 C   0  0  0  0  0  0  0  0  0  0  0  0
   -4.2628   -5.2337  -17.5282 C   0  0  0  0  0  0  0  0  0  0  0  0
   -5.5626   -5.8782  -17.1670 C   0  0  0  0  0  0  0  0  0  0  0  0
   -5.9880   -6.9118  -18.1989 C   0  0  0  0  0  0  0  0  0  0  0  0
   -7.3783   -7.3796  -17.7960 C   0  0  0  0  0  0  0  0  0  0  0  0
   -7.9091   -8.3649  -18.8540 C   0  0  0  0  0  0  0  0  0  0  0  0
   -9.3784   -8.4941  -18.5846 C   0  0  0  0  0  0  0  0  0  0  0  0
   -9.8526   -9.9574  -18.5908 C   0  0  0  0  0  0  0  0  0  0  0  0
  -11.2677  -10.0445  -19.0090 C   0  0  0  0  0  0  0  0  0  0  0  0
  -11.6638  -11.1078  -19.9465 C   0  0  0  0  0  0  0  0  0  0  0  0
  -12.7862  -11.9963  -19.6429 C   0  0  0  0  0  0  0  0  0  0  0  0
  -13.1986  -13.0493  -20.5893 C   0  0  0  0  0  0  0  0  0  0  0  0
  -14.2893  -12.4329  -21.5048 C   0  0  0  0  0  0  0  0  0  0  0  0
  1  2  2  0
  1  3  1  0
  1  4  1  0
  4  5  1  0
  5  6  1  0
  6  7  1  0
  7  8  1  0
  8  9  1  0
  9 10  1  0
 10 11  1  0
 11 12  1  0
 12 13  1  0
 13 14  1  0
 14 15  1  0
 15 16  1  0
 16 17  1  0
 17 18  1  0
M  END
$$$$
