
     RDKit          3D

 18 17  0  0  0  0  0  0  0  0999 V2000
   -1.9400   -2.0822  -18.1155 C   0  0  0  0  0  0  0  0  0  0  0  0
   -0.8319   -1.5361  -18.4080 O   0  0  0  0  0  0  0  0  0  0  0  0
   -2.7020   -2.5054  -19.1898 O   0  0  0  0  0  0  0  0  0  0  0  0
   -2.3072   -2.2143  -16.7034 C   0  0  0  0  0  0  0  0  0  0  0  0
   -2.2735   -3.6281  -16.2026 C   0  0  0  0  0  0  0  0  0  0  0  0
   -2.8888   -4.6184  -17.1249 C   0  0  0  0  0  0  0  0  0  0  0  0
   -4.2356   -5.0782  -16.6497 C   0  0  0  0  0  0  0  0  0  0  0  0
   -4.7785   -6.1166  -17.5783 C   0  0  0  0  0  0  0  0  0  0  0  0
   -6.1201   -6.6544  -17.1041 C   0  0  0  0  0  0  0  0  0  0  0  0
   -6.6289   -7.5778  -18.2006 C   0  0  0  0  0  0  0  0  0  0  0  0
   -7.9898   -8.1637  -17.7804 C   0  0  0  0  0  0  0  0  0  0  0  0
   -8.4458   -8.9981  -18.9398 C   0  0  0  0  0  0  0  0  0  0  0  0
   -9.8078   -9.6662  -18.6858 C   0  0  0  0  0  0  0  0  0  0  0  0
  -10.2328  -10.4477  -19.8664 C   0  0  0  0  0  0  0  0  0  0  0  0
  -11.4391  -11.2847  -19.7634 C   0  0  0  0  0  0  0  0  0  0  0  0
  -12.5553  -11.1100  -20.6935 C   0  0  0  0  0  0  0  0  0  0  0  0
  -13.9394  -10.9779  -20.2023 C   0  0  0  0  0  0  0  0  0  0  0  0
  -14.6649  -12.3097  -20.5302 C   0  0  0  0  0  0  0  0  0  0  0  0
  1  2  2  0
  1  3  1  0
  1  4  1  0
  4  5  1  0
  5  6  1  0
  6  7  1  0
  7  8  1  0
  8  9  1  0
  9 10  1  0
 10 11  1  0
 11 12  1  0
 12 13  1  0
 13 14  1  0
 14 15  1  0
 15 16  1  0
 16 17  1  0
 17 18  1  0
M  END
$$$$
