
     RDKit          3D

 18 17  0  0  0  0  0  0  0  0999 V2000
   -1.4020   -1.6104  -17.7258 C   0  0  0  0  0  0  0  0  0  0  0  0
   -0.2435   -2.1083  -17.8733 O   0  0  0  0  0  0  0  0  0  0  0  0
   -1.7828   -0.6846  -18.6805 O   0  0  0  0  0  0  0  0  0  0  0  0
   -2.2148   -2.0471  -16.5878 C   0  0  0  0  0  0  0  0  0  0  0  0
   -2.3843   -3.5355  -16.5054 C   0  0  0  0  0  0  0  0  0  0  0  0
   -3.7641   -4.0104  -16.7894 C   0  0  0  0  0  0  0  0  0  0  0  0
   -3.7951   -5.0618  -17.8593 C   0  0  0  0  0  0  0  0  0  0  0  0
   -4.5553   -6.2567  -17.3801 C   0  0  0  0  0  0  0  0  0  0  0  0
   -5.2790   -6.9608  -18.5180 C   0  0  0  0  0  0  0  0  0  0  0  0
   -6.6236   -7.4084  -17.9652 C   0  0  0  0  0  0  0  0  0  0  0  0
   -7.4015   -8.1557  -19.0645 C   0  0  0  0  0  0  0  0  0  0  0  0
   -8.5343   -8.8424  -18.3622 C   0  0  0  0  0  0  0  0  0  0  0  0
   -9.5288   -9.4900  -19.3408 C   0  0  0  0  0  0  0  0  0  0  0  0
  -10.9155   -9.3343  -18.8532 C   0  0  0  0  0  0  0  0  0  0  0  0
  -11.8260  -10.4882  -18.9308 C   0  0  0  0  0  0  0  0  0  0  0  0
  -12.7267  -10.6581  -20.0716 C   0  0  0  0  0  0  0  0  0  0  0  0
  -12.9352  -11.9835  -20.6836 C   0  0  0  0  0  0  0  0  0  0  0  0
  -13.9730  -12.7296  -19.8039 C   0  0  0  0  0  0  0  0  0  0  0  0
  1  2  2  0
  1  3  1  0
  1  4  1  0
  4  5  1  0
  5  6  1  0
  6  7  1  0
  7  8  1  0
  8  9  1  0
  9 10  1  0
 10 11  1  0
 11 12  1  0
 12 13  1  0
 13 14  1  0
 14 15  1  0
 15 16  1  0
 16 17  1  0
 17 18  1  0
M  END
$$$$
