
     RDKit          3D

 18 17  0  0  0  0  0  0  0  0999 V2000
   -1.4939   -1.9176  -18.1498 C   0  0  0  0  0  0  0  0  0  0  0  0
   -2.2243   -1.1484  -18.8472 O   0  0  0  0  0  0  0  0  0  0  0  0
   -0.3707   -2.4166  -18.7849 O   0  0  0  0  0  0  0  0  0  0  0  0
   -1.8919   -2.2035  -16.7692 C   0  0  0  0  0  0  0  0  0  0  0  0
   -3.2556   -2.8176  -16.6510 C   0  0  0  0  0  0  0  0  0  0  0  0
   -3.4771   -3.9903  -17.5373 C   0  0  0  0  0  0  0  0  0  0  0  0
   -3.6685   -5.2608  -16.7626 C   0  0  0  0  0  0  0  0  0  0  0  0
   -3.9705   -6.3886  -17.6965 C   0  0  0  0  0  0  0  0  0  0  0  0
   -4.8968   -7.4157  -17.0630 C   0  0  0  0  0  0  0  0  0  0  0  0
   -6.0518   -7.6140  -18.0329 C   0  0  0  0  0  0  0  0  0  0  0  0
   -7.0647   -8.6001  -17.4216 C   0  0  0  0  0  0  0  0  0  0  0  0
   -8.1599   -8.7354  -18.4366 C   0  0  0  0  0  0  0  0  0  0  0  0
   -9.2599   -9.7136  -17.9904 C   0  0  0  0  0  0  0  0  0  0  0  0
  -10.1682  -10.0241  -19.1145 C   0  0  0  0  0  0  0  0  0  0  0  0
  -11.2714  -10.9723  -18.8910 C   0  0  0  0  0  0  0  0  0  0  0  0
  -12.1967  -11.3155  -19.9716 C   0  0  0  0  0  0  0  0  0  0  0  0
  -13.3033  -12.2648  -19.7509 C   0  0  0  0  0  0  0  0  0  0  0  0
  -14.0565  -12.4032  -21.1005 C   0  0  0  0  0  0  0  0  0  0  0  0
  1  2  2  0
  1  3  1  0
  1  4  1  0
  4  5  1  0
  5  6  1  0
  6  7  1  0
  7  8  1  0
  8  9  1  0
  9 10  1  0
 10 11  1  0
 11 12  1  0
 12 13  1  0
 13 14  1  0
 14 15  1  0
 15 16  1  0
 16 17  1  0
 17 18  1  0
M  END
$$$$
