
     RDKit          3D

 18 17  0  0  0  0  0  0  0  0999 V2000
   -0.4597   -2.6360  -15.6089 C   0  0  0  0  0  0  0  0  0  0  0  0
    0.3782   -3.4710  -16.0697 O   0  0  0  0  0  0  0  0  0  0  0  0
   -0.3160   -2.3189  -14.2700 O   0  0  0  0  0  0  0  0  0  0  0  0
   -1.4798   -2.0940  -16.5100 C   0  0  0  0  0  0  0  0  0  0  0  0
   -1.9763   -3.0842  -17.5218 C   0  0  0  0  0  0  0  0  0  0  0  0
   -3.0144   -4.0157  -17.0074 C   0  0  0  0  0  0  0  0  0  0  0  0
   -3.7979   -4.6608  -18.1124 C   0  0  0  0  0  0  0  0  0  0  0  0
   -4.8118   -5.5989  -17.5403 C   0  0  0  0  0  0  0  0  0  0  0  0
   -5.5977   -6.3151  -18.6281 C   0  0  0  0  0  0  0  0  0  0  0  0
   -6.8606   -6.8496  -17.9697 C   0  0  0  0  0  0  0  0  0  0  0  0
   -7.9245   -7.1140  -19.0515 C   0  0  0  0  0  0  0  0  0  0  0  0
   -8.7370   -8.2681  -18.5455 C   0  0  0  0  0  0  0  0  0  0  0  0
   -9.9902   -8.5261  -19.3993 C   0  0  0  0  0  0  0  0  0  0  0  0
  -10.2751   -9.9743  -19.4819 C   0  0  0  0  0  0  0  0  0  0  0  0
  -11.6720  -10.4270  -19.3813 C   0  0  0  0  0  0  0  0  0  0  0  0
  -12.0069  -11.8497  -19.4539 C   0  0  0  0  0  0  0  0  0  0  0  0
  -13.4043  -12.2937  -19.6106 C   0  0  0  0  0  0  0  0  0  0  0  0
  -13.7039  -13.2665  -18.4394 C   0  0  0  0  0  0  0  0  0  0  0  0
  1  2  2  0
  1  3  1  0
  1  4  1  0
  4  5  1  0
  5  6  1  0
  6  7  1  0
  7  8  1  0
  8  9  1  0
  9 10  1  0
 10 11  1  0
 11 12  1  0
 12 13  1  0
 13 14  1  0
 14 15  1  0
 15 16  1  0
 16 17  1  0
 17 18  1  0
M  END
$$$$
