
     RDKit          3D

 18 17  0  0  0  0  0  0  0  0999 V2000
   -0.7835   -1.6420  -17.8913 C   0  0  0  0  0  0  0  0  0  0  0  0
   -1.1140   -0.4221  -17.7723 O   0  0  0  0  0  0  0  0  0  0  0  0
    0.0252   -1.9413  -18.9730 O   0  0  0  0  0  0  0  0  0  0  0  0
   -1.2734   -2.6028  -16.8998 C   0  0  0  0  0  0  0  0  0  0  0  0
   -2.7193   -2.9631  -17.0742 C   0  0  0  0  0  0  0  0  0  0  0  0
   -2.9587   -4.3959  -17.3895 C   0  0  0  0  0  0  0  0  0  0  0  0
   -4.1016   -4.9682  -16.6038 C   0  0  0  0  0  0  0  0  0  0  0  0
   -4.6837   -6.1398  -17.3275 C   0  0  0  0  0  0  0  0  0  0  0  0
   -5.8459   -6.7565  -16.5637 C   0  0  0  0  0  0  0  0  0  0  0  0
   -6.3485   -7.9200  -17.4049 C   0  0  0  0  0  0  0  0  0  0  0  0
   -7.8308   -7.6910  -17.7545 C   0  0  0  0  0  0  0  0  0  0  0  0
   -8.3091   -8.9805  -18.3517 C   0  0  0  0  0  0  0  0  0  0  0  0
   -9.8156   -8.9638  -18.6617 C   0  0  0  0  0  0  0  0  0  0  0  0
  -10.2495  -10.2672  -19.2075 C   0  0  0  0  0  0  0  0  0  0  0  0
  -11.6721  -10.4594  -19.5327 C   0  0  0  0  0  0  0  0  0  0  0  0
  -12.1561  -11.7369  -20.0571 C   0  0  0  0  0  0  0  0  0  0  0  0
  -13.5886  -11.9500  -20.3347 C   0  0  0  0  0  0  0  0  0  0  0  0
  -13.7274  -13.3781  -20.9253 C   0  0  0  0  0  0  0  0  0  0  0  0
  1  2  2  0
  1  3  1  0
  1  4  1  0
  4  5  1  0
  5  6  1  0
  6  7  1  0
  7  8  1  0
  8  9  1  0
  9 10  1  0
 10 11  1  0
 11 12  1  0
 12 13  1  0
 13 14  1  0
 14 15  1  0
 15 16  1  0
 16 17  1  0
 17 18  1  0
M  END
$$$$
