
     RDKit          3D

 18 17  0  0  0  0  0  0  0  0999 V2000
   -1.0852   -2.2650  -17.9571 C   0  0  0  0  0  0  0  0  0  0  0  0
   -0.7388   -3.0144  -18.9215 O   0  0  0  0  0  0  0  0  0  0  0  0
   -1.2622   -0.9290  -18.2695 O   0  0  0  0  0  0  0  0  0  0  0  0
   -1.2633   -2.8628  -16.6315 C   0  0  0  0  0  0  0  0  0  0  0  0
   -1.8568   -4.2402  -16.6674 C   0  0  0  0  0  0  0  0  0  0  0  0
   -3.3427   -4.2649  -16.7074 C   0  0  0  0  0  0  0  0  0  0  0  0
   -3.8782   -5.5986  -17.1382 C   0  0  0  0  0  0  0  0  0  0  0  0
   -5.3540   -5.6563  -16.9061 C   0  0  0  0  0  0  0  0  0  0  0  0
   -5.8678   -7.0879  -16.8831 C   0  0  0  0  0  0  0  0  0  0  0  0
   -7.2802   -7.0505  -17.4469 C   0  0  0  0  0  0  0  0  0  0  0  0
   -7.5444   -8.3431  -18.2414 C   0  0  0  0  0  0  0  0  0  0  0  0
   -8.9739   -8.2591  -18.6860 C   0  0  0  0  0  0  0  0  0  0  0  0
   -9.4783   -9.5755  -19.3015 C   0  0  0  0  0  0  0  0  0  0  0  0
  -10.8478   -9.4108  -19.8330 C   0  0  0  0  0  0  0  0  0  0  0  0
  -11.4721  -10.5403  -20.5407 C   0  0  0  0  0  0  0  0  0  0  0  0
  -12.7239  -11.1270  -20.0609 C   0  0  0  0  0  0  0  0  0  0  0  0
  -13.2640  -12.3603  -20.6623 C   0  0  0  0  0  0  0  0  0  0  0  0
  -13.8552  -13.2070  -19.5042 C   0  0  0  0  0  0  0  0  0  0  0  0
  1  2  2  0
  1  3  1  0
  1  4  1  0
  4  5  1  0
  5  6  1  0
  6  7  1  0
  7  8  1  0
  8  9  1  0
  9 10  1  0
 10 11  1  0
 11 12  1  0
 12 13  1  0
 13 14  1  0
 14 15  1  0
 15 16  1  0
 16 17  1  0
 17 18  1  0
M  END
$$$$
