
     RDKit          3D

 18 17  0  0  0  0  0  0  0  0999 V2000
   -1.1772   -1.7373  -16.4013 C   0  0  0  0  0  0  0  0  0  0  0  0
   -0.4408   -1.7965  -15.3689 O   0  0  0  0  0  0  0  0  0  0  0  0
   -1.6884   -0.4876  -16.7023 O   0  0  0  0  0  0  0  0  0  0  0  0
   -1.4162   -2.9643  -17.1653 C   0  0  0  0  0  0  0  0  0  0  0  0
   -2.7790   -3.0287  -17.7893 C   0  0  0  0  0  0  0  0  0  0  0  0
   -3.5912   -4.1992  -17.3649 C   0  0  0  0  0  0  0  0  0  0  0  0
   -3.2782   -5.4291  -18.1651 C   0  0  0  0  0  0  0  0  0  0  0  0
   -4.5108   -5.9170  -18.8563 C   0  0  0  0  0  0  0  0  0  0  0  0
   -5.4760   -6.5846  -17.8884 C   0  0  0  0  0  0  0  0  0  0  0  0
   -6.5926   -7.1809  -18.7320 C   0  0  0  0  0  0  0  0  0  0  0  0
   -7.6071   -7.8821  -17.8096 C   0  0  0  0  0  0  0  0  0  0  0  0
   -8.7102   -8.3555  -18.7080 C   0  0  0  0  0  0  0  0  0  0  0  0
   -9.8611   -9.0167  -17.9306 C   0  0  0  0  0  0  0  0  0  0  0  0
  -11.0258   -9.2388  -18.8132 C   0  0  0  0  0  0  0  0  0  0  0  0
  -11.7746  -10.5001  -18.6920 C   0  0  0  0  0  0  0  0  0  0  0  0
  -12.3128  -11.1702  -19.8764 C   0  0  0  0  0  0  0  0  0  0  0  0
  -12.2931  -12.6401  -19.9919 C   0  0  0  0  0  0  0  0  0  0  0  0
  -13.5598  -13.0482  -20.7897 C   0  0  0  0  0  0  0  0  0  0  0  0
  1  2  2  0
  1  3  1  0
  1  4  1  0
  4  5  1  0
  5  6  1  0
  6  7  1  0
  7  8  1  0
  8  9  1  0
  9 10  1  0
 10 11  1  0
 11 12  1  0
 12 13  1  0
 13 14  1  0
 14 15  1  0
 15 16  1  0
 16 17  1  0
 17 18  1  0
M  END
$$$$
