
     RDKit          3D

 18 17  0  0  0  0  0  0  0  0999 V2000
   -1.5938   -1.7786  -17.2158 C   0  0  0  0  0  0  0  0  0  0  0  0
   -0.6199   -2.4767  -16.7963 O   0  0  0  0  0  0  0  0  0  0  0  0
   -1.3556   -1.0464  -18.3651 O   0  0  0  0  0  0  0  0  0  0  0  0
   -2.8529   -1.8075  -16.4674 C   0  0  0  0  0  0  0  0  0  0  0  0
   -3.7452   -2.9562  -16.8349 C   0  0  0  0  0  0  0  0  0  0  0  0
   -3.3568   -4.2530  -16.2206 C   0  0  0  0  0  0  0  0  0  0  0  0
   -3.6050   -5.4141  -17.1378 C   0  0  0  0  0  0  0  0  0  0  0  0
   -5.0670   -5.7228  -17.1879 C   0  0  0  0  0  0  0  0  0  0  0  0
   -5.3642   -6.9108  -18.0904 C   0  0  0  0  0  0  0  0  0  0  0  0
   -6.8708   -7.1175  -18.0526 C   0  0  0  0  0  0  0  0  0  0  0  0
   -7.2412   -8.3183  -18.9430 C   0  0  0  0  0  0  0  0  0  0  0  0
   -8.7334   -8.4389  -18.8584 C   0  0  0  0  0  0  0  0  0  0  0  0
   -9.3204   -9.3002  -19.9896 C   0  0  0  0  0  0  0  0  0  0  0  0
  -10.7868   -9.4189  -19.8465 C   0  0  0  0  0  0  0  0  0  0  0  0
  -11.3909  -10.7611  -19.8466 C   0  0  0  0  0  0  0  0  0  0  0  0
  -12.7899  -10.9544  -20.2295 C   0  0  0  0  0  0  0  0  0  0  0  0
  -13.5167  -12.1821  -19.8564 C   0  0  0  0  0  0  0  0  0  0  0  0
  -14.4956  -11.7990  -18.7150 C   0  0  0  0  0  0  0  0  0  0  0  0
  1  2  2  0
  1  3  1  0
  1  4  1  0
  4  5  1  0
  5  6  1  0
  6  7  1  0
  7  8  1  0
  8  9  1  0
  9 10  1  0
 10 11  1  0
 11 12  1  0
 12 13  1  0
 13 14  1  0
 14 15  1  0
 15 16  1  0
 16 17  1  0
 17 18  1  0
M  END
$$$$
