
     RDKit          3D

 26 30  0  0  0  0  0  0  0  0999 V2000
   -2.7712  -15.7272   27.9359 C   0  0  0  0  0  0  0  0  0  0  0  0
   -2.8910  -15.7263   29.3310 C   0  0  0  0  0  0  0  0  0  0  0  0
   -1.9427  -16.3392   30.1078 C   0  0  0  0  0  0  0  0  0  0  0  0
   -3.7988  -15.8209   31.4809 C   0  0  2  0  0  0  0  0  0  0  0  0
   -4.3165  -18.2269   32.0272 C   0  0  0  0  0  0  0  0  0  0  0  0
   -2.0476  -17.4366   32.2101 C   0  0  0  0  0  0  0  0  0  0  0  0
   -0.3755  -18.8220   33.2801 C   0  0  0  0  0  0  0  0  0  0  0  0
   -2.6035  -19.6186   33.0857 C   0  0  0  0  0  0  0  0  0  0  0  0
   -4.5430  -15.3710   33.8559 C   0  0  0  0  0  0  0  0  0  0  0  0
   -3.4298  -15.5190   34.8302 C   0  0  0  0  0  0  0  0  0  0  0  0
   -3.2383  -13.6892   32.6765 C   0  0  0  0  0  0  0  0  0  0  0  0
   -1.5594  -14.4784   35.7907 C   0  0  0  0  0  0  0  0  0  0  0  0
   -1.6888  -16.3520   27.3584 C   0  0  0  0  0  0  0  0  0  0  0  0
   -0.7565  -16.9570   28.1663 C   0  0  0  0  0  0  0  0  0  0  0  0
   -0.8472  -16.9726   29.5417 C   0  0  0  0  0  0  0  0  0  0  0  0
   -3.8988  -15.1631   30.1788 N   0  0  0  0  0  0  0  0  0  0  0  0
   -2.3409  -16.1703   31.5297 C   0  0  1  0  0  0  0  0  0  0  0  0
   -4.6168  -16.9899   31.3976 N   0  0  0  0  0  0  0  0  0  0  0  0
   -2.9441  -18.4510   32.4558 C   0  0  0  0  0  0  0  0  0  0  0  0
   -0.7477  -17.6536   32.6415 C   0  0  0  0  0  0  0  0  0  0  0  0
   -1.2983  -19.8184   33.5098 C   0  0  0  0  0  0  0  0  0  0  0  0
   -5.2056  -19.0952   32.2066 O   0  0  0  0  0  0  0  0  0  0  0  0
   -4.2139  -14.8143   32.5143 C   0  0  1  0  0  0  0  0  0  0  0  0
   -2.1817  -14.9514   34.5338 N   0  0  2  0  0  4  0  0  0  0  0  0
   -2.1266  -13.8805   33.6152 C   0  0  0  0  0  0  0  0  0  0  0  0
   -5.5335  -14.1489   32.0419 C   0  0  0  0  0  0  0  0  0  0  0  0
  2  1  2  0
  1 13  1  0
  3  2  1  0
 16  2  1  0
  3 15  2  0
 17  3  1  6
  4 16  1  6
  4 17  1  0
  4 18  1  0
 23  4  1  0
 18  5  1  0
  5 19  1  0
  5 22  2  0
 17  6  1  0
  6 19  2  0
  6 20  1  0
 20  7  2  0
  7 21  1  0
 19  8  1  0
  8 21  2  0
  9 10  1  0
  9 23  1  0
 10 24  1  0
 23 11  1  0
 11 25  1  0
 24 12  1  1
 13 14  2  0
 14 15  1  0
 23 26  1  6
 24 25  1  0
M  CHG  1  24   1
M  END
$$$$
