
     RDKit          3D

 26 30  0  0  0  0  0  0  0  0999 V2000
   -6.3032  -13.7953   29.1629 C   0  0  0  0  0  0  0  0  0  0  0  0
   -5.7054  -14.9575   28.6603 C   0  0  0  0  0  0  0  0  0  0  0  0
   -5.3215  -15.0260   27.3464 C   0  0  0  0  0  0  0  0  0  0  0  0
   -5.2107  -17.2050   28.2620 C   0  0  2  0  0  0  0  0  0  0  0  0
   -6.9703  -18.1529   26.7256 C   0  0  0  0  0  0  0  0  0  0  0  0
   -5.1878  -16.8220   25.8000 C   0  0  0  0  0  0  0  0  0  0  0  0
   -4.8749  -16.7345   23.4011 C   0  0  0  0  0  0  0  0  0  0  0  0
   -6.6473  -18.0317   24.3023 C   0  0  0  0  0  0  0  0  0  0  0  0
   -3.4109  -17.7406   29.9564 C   0  0  0  0  0  0  0  0  0  0  0  0
   -3.9753  -18.0364   31.2997 C   0  0  0  0  0  0  0  0  0  0  0  0
   -4.7558  -19.5469   29.0342 C   0  0  0  0  0  0  0  0  0  0  0  0
   -4.9789  -19.6713   32.6501 C   0  0  0  0  0  0  0  0  0  0  0  0
   -6.4989  -12.7254   28.3188 C   0  0  0  0  0  0  0  0  0  0  0  0
   -6.1024  -12.8275   27.0071 C   0  0  0  0  0  0  0  0  0  0  0  0
   -5.5116  -13.9577   26.4837 C   0  0  0  0  0  0  0  0  0  0  0  0
   -5.3909  -16.1968   29.3057 N   0  0  0  0  0  0  0  0  0  0  0  0
   -4.7252  -16.3677   27.1161 C   0  0  1  0  0  0  0  0  0  0  0  0
   -6.5089  -17.7451   28.0052 N   0  0  0  0  0  0  0  0  0  0  0  0
   -6.2566  -17.6543   25.5597 C   0  0  0  0  0  0  0  0  0  0  0  0
   -4.5032  -16.3700   24.6819 C   0  0  0  0  0  0  0  0  0  0  0  0
   -5.9510  -17.5692   23.1956 C   0  0  0  0  0  0  0  0  0  0  0  0
   -7.9598  -18.9169   26.6069 O   0  0  0  0  0  0  0  0  0  0  0  0
   -4.1923  -18.1845   28.7688 C   0  0  1  0  0  0  0  0  0  0  0  0
   -5.0891  -18.8831   31.4022 N   0  0  2  0  0  4  0  0  0  0  0  0
   -5.3429  -19.7964   30.3557 C   0  0  0  0  0  0  0  0  0  0  0  0
   -3.1237  -18.3903   27.6629 C   0  0  0  0  0  0  0  0  0  0  0  0
  2  1  2  0
  1 13  1  0
  3  2  1  0
 16  2  1  0
  3 15  2  0
 17  3  1  1
  4 16  1  1
  4 17  1  0
  4 18  1  0
 23  4  1  0
 18  5  1  0
  5 19  1  0
  5 22  2  0
 17  6  1  0
  6 19  2  0
  6 20  1  0
 20  7  2  0
  7 21  1  0
 19  8  1  0
  8 21  2  0
  9 10  1  0
  9 23  1  0
 10 24  1  0
 23 11  1  0
 11 25  1  0
 24 12  1  1
 13 14  2  0
 14 15  1  0
 23 26  1  6
 24 25  1  0
M  CHG  1  24   1
M  END
$$$$
