
     RDKit          3D

 26 30  0  0  0  0  0  0  0  0999 V2000
   -6.5243  -13.7895   29.1342 C   0  0  0  0  0  0  0  0  0  0  0  0
   -5.9070  -14.9453   28.6406 C   0  0  0  0  0  0  0  0  0  0  0  0
   -5.3879  -14.9651   27.3723 C   0  0  0  0  0  0  0  0  0  0  0  0
   -5.4315  -17.1864   28.1864 C   0  0  2  0  0  0  0  0  0  0  0  0
   -7.0423  -18.0075   26.4297 C   0  0  0  0  0  0  0  0  0  0  0  0
   -5.1377  -16.6913   25.7621 C   0  0  0  0  0  0  0  0  0  0  0  0
   -4.5702  -16.5032   23.4163 C   0  0  0  0  0  0  0  0  0  0  0  0
   -6.4612  -17.7849   24.0624 C   0  0  0  0  0  0  0  0  0  0  0  0
   -3.3171  -17.6853   29.4815 C   0  0  0  0  0  0  0  0  0  0  0  0
   -3.4740  -17.4191   30.9358 C   0  0  0  0  0  0  0  0  0  0  0  0
   -5.1843  -19.2412   29.6022 C   0  0  0  0  0  0  0  0  0  0  0  0
   -4.2782  -18.2612   32.9725 C   0  0  0  0  0  0  0  0  0  0  0  0
   -6.6016  -12.6764   28.3278 C   0  0  0  0  0  0  0  0  0  0  0  0
   -6.0712  -12.7302   27.0613 C   0  0  0  0  0  0  0  0  0  0  0  0
   -5.4578  -13.8528   26.5478 C   0  0  0  0  0  0  0  0  0  0  0  0
   -5.6950  -16.2222   29.2537 N   0  0  0  0  0  0  0  0  0  0  0  0
   -4.8056  -16.3126   27.1400 C   0  0  1  0  0  0  0  0  0  0  0  0
   -6.7086  -17.6736   27.7690 N   0  0  0  0  0  0  0  0  0  0  0  0
   -6.1963  -17.4781   25.3707 C   0  0  0  0  0  0  0  0  0  0  0  0
   -4.3270  -16.2097   24.7453 C   0  0  0  0  0  0  0  0  0  0  0  0
   -5.6398  -17.2938   23.0586 C   0  0  0  0  0  0  0  0  0  0  0  0
   -8.0331  -18.7342   26.1708 O   0  0  0  0  0  0  0  0  0  0  0  0
   -4.4982  -18.2192   28.7483 C   0  0  1  0  0  0  0  0  0  0  0  0
   -4.6319  -17.8637   31.5913 N   0  0  2  0  0  4  0  0  0  0  0  0
   -5.3611  -18.9324   31.0259 C   0  0  0  0  0  0  0  0  0  0  0  0
   -3.8865  -19.0159   27.5658 C   0  0  0  0  0  0  0  0  0  0  0  0
  2  1  2  0
  1 13  1  0
  3  2  1  0
 16  2  1  0
  3 15  2  0
 17  3  1  1
  4 16  1  1
  4 17  1  0
  4 18  1  0
 23  4  1  0
 18  5  1  0
  5 19  1  0
  5 22  2  0
 17  6  1  0
  6 19  2  0
  6 20  1  0
 20  7  2  0
  7 21  1  0
 19  8  1  0
  8 21  2  0
  9 10  1  0
  9 23  1  0
 10 24  1  0
 23 11  1  0
 11 25  1  0
 24 12  1  1
 13 14  2  0
 14 15  1  0
 23 26  1  6
 24 25  1  0
M  CHG  1  24   1
M  END
$$$$
