
     RDKit          3D

 26 30  0  0  0  0  0  0  0  0999 V2000
   -0.2731  -19.2216   31.5864 C   0  0  0  0  0  0  0  0  0  0  0  0
   -1.2947  -18.2775   31.4266 C   0  0  0  0  0  0  0  0  0  0  0  0
   -2.5804  -18.6836   31.1806 C   0  0  0  0  0  0  0  0  0  0  0  0
   -2.4590  -16.3506   30.8049 C   0  0  2  0  0  0  0  0  0  0  0  0
   -3.0334  -16.5163   28.3559 C   0  0  0  0  0  0  0  0  0  0  0  0
   -4.3718  -17.7091   29.9657 C   0  0  0  0  0  0  0  0  0  0  0  0
   -6.4614  -18.7194   29.2779 C   0  0  0  0  0  0  0  0  0  0  0  0
   -5.1394  -17.5645   27.6795 C   0  0  0  0  0  0  0  0  0  0  0  0
   -1.6930  -14.1814   31.8560 C   0  0  0  0  0  0  0  0  0  0  0  0
   -1.2098  -13.2069   30.8424 C   0  0  0  0  0  0  0  0  0  0  0  0
   -3.8367  -14.2578   30.7068 C   0  0  0  0  0  0  0  0  0  0  0  0
   -1.8482  -11.5916   29.2654 C   0  0  0  0  0  0  0  0  0  0  0  0
   -0.5794  -20.5605   31.4927 C   0  0  0  0  0  0  0  0  0  0  0  0
   -1.8786  -20.9334   31.2451 C   0  0  0  0  0  0  0  0  0  0  0  0
   -2.9052  -20.0278   31.0833 C   0  0  0  0  0  0  0  0  0  0  0  0
   -1.2558  -16.8465   31.4718 N   0  0  0  0  0  0  0  0  0  0  0  0
   -3.4267  -17.4676   31.0615 C   0  0  1  0  0  0  0  0  0  0  0  0
   -2.1294  -16.2491   29.4179 N   0  0  0  0  0  0  0  0  0  0  0  0
   -4.2243  -17.2943   28.6622 C   0  0  0  0  0  0  0  0  0  0  0  0
   -5.5207  -18.4321   30.2494 C   0  0  0  0  0  0  0  0  0  0  0  0
   -6.2824  -18.2895   27.9816 C   0  0  0  0  0  0  0  0  0  0  0  0
   -2.8109  -16.0949   27.1941 O   0  0  0  0  0  0  0  0  0  0  0  0
   -2.8331  -15.0610   31.4760 C   0  0  1  0  0  0  0  0  0  0  0  0
   -1.9572  -13.0107   29.6716 N   0  0  2  0  0  4  0  0  0  0  0  0
   -3.3316  -13.3341   29.6844 C   0  0  0  0  0  0  0  0  0  0  0  0
   -3.5228  -15.3973   32.8246 C   0  0  0  0  0  0  0  0  0  0  0  0
  2  1  2  0
  1 13  1  0
  3  2  1  0
 16  2  1  0
  3 15  2  0
 17  3  1  6
  4 16  1  1
  4 17  1  0
  4 18  1  0
 23  4  1  0
 18  5  1  0
  5 19  1  0
  5 22  2  0
 17  6  1  0
  6 19  2  0
  6 20  1  0
 20  7  2  0
  7 21  1  0
 19  8  1  0
  8 21  2  0
  9 10  1  0
  9 23  1  0
 10 24  1  0
 23 11  1  0
 11 25  1  0
 24 12  1  1
 13 14  2  0
 14 15  1  0
 23 26  1  1
 24 25  1  0
M  CHG  1  24   1
M  END
$$$$
