
     RDKit          3D

 26 30  0  0  0  0  0  0  0  0999 V2000
   -4.3992  -16.6356   34.6204 C   0  0  0  0  0  0  0  0  0  0  0  0
   -4.1771  -16.6527   33.2380 C   0  0  0  0  0  0  0  0  0  0  0  0
   -4.0779  -17.8438   32.5673 C   0  0  0  0  0  0  0  0  0  0  0  0
   -3.3700  -16.1169   31.1128 C   0  0  2  0  0  0  0  0  0  0  0  0
   -1.0130  -16.9873   30.9076 C   0  0  0  0  0  0  0  0  0  0  0  0
   -2.8611  -18.5101   30.6410 C   0  0  0  0  0  0  0  0  0  0  0  0
   -2.4647  -20.7445   29.7983 C   0  0  0  0  0  0  0  0  0  0  0  0
   -0.6343  -19.2587   30.0777 C   0  0  0  0  0  0  0  0  0  0  0  0
   -5.3518  -15.3494   29.7417 C   0  0  0  0  0  0  0  0  0  0  0  0
   -6.1579  -14.3193   30.4486 C   0  0  0  0  0  0  0  0  0  0  0  0
   -3.4036  -13.9040   29.9341 C   0  0  0  0  0  0  0  0  0  0  0  0
   -6.3311  -12.0418   30.9839 C   0  0  0  0  0  0  0  0  0  0  0  0
   -4.5159  -17.8309   35.2935 C   0  0  0  0  0  0  0  0  0  0  0  0
   -4.4113  -19.0070   34.5906 C   0  0  0  0  0  0  0  0  0  0  0  0
   -4.1930  -19.0558   33.2304 C   0  0  0  0  0  0  0  0  0  0  0  0
   -4.0176  -15.5760   32.3070 N   0  0  0  0  0  0  0  0  0  0  0  0
   -3.8459  -17.5393   31.1312 C   0  0  1  0  0  0  0  0  0  0  0  0
   -1.9635  -16.0302   31.3517 N   0  0  0  0  0  0  0  0  0  0  0  0
   -1.5053  -18.3039   30.5314 C   0  0  0  0  0  0  0  0  0  0  0  0
   -3.3205  -19.7618   30.2601 C   0  0  0  0  0  0  0  0  0  0  0  0
   -1.1118  -20.5053   29.7016 C   0  0  0  0  0  0  0  0  0  0  0  0
    0.2089  -16.7051   30.8429 O   0  0  0  0  0  0  0  0  0  0  0  0
   -3.8763  -15.3254   29.9421 C   0  0  1  0  0  0  0  0  0  0  0  0
   -5.5009  -13.2620   31.0954 N   0  0  2  0  0  4  0  0  0  0  0  0
   -4.1979  -12.9171   30.6748 C   0  0  0  0  0  0  0  0  0  0  0  0
   -3.3038  -15.9560   28.6452 C   0  0  0  0  0  0  0  0  0  0  0  0
  2  1  2  0
  1 13  1  0
  3  2  1  0
 16  2  1  0
  3 15  2  0
 17  3  1  1
  4 16  1  1
  4 17  1  0
  4 18  1  0
 23  4  1  0
 18  5  1  0
  5 19  1  0
  5 22  2  0
 17  6  1  0
  6 19  2  0
  6 20  1  0
 20  7  2  0
  7 21  1  0
 19  8  1  0
  8 21  2  0
  9 10  1  0
  9 23  1  0
 10 24  1  0
 23 11  1  0
 11 25  1  0
 24 12  1  6
 13 14  2  0
 14 15  1  0
 23 26  1  6
 24 25  1  0
M  CHG  1  24   1
M  END
$$$$
