
     RDKit          3D

 26 30  0  0  0  0  0  0  0  0999 V2000
   -2.8815  -20.8061   34.3393 C   0  0  0  0  0  0  0  0  0  0  0  0
   -2.1495  -19.6420   34.0750 C   0  0  0  0  0  0  0  0  0  0  0  0
   -0.8258  -19.5629   34.4213 C   0  0  0  0  0  0  0  0  0  0  0  0
   -1.5663  -17.3931   33.8361 C   0  0  2  0  0  0  0  0  0  0  0  0
   -1.1597  -16.4227   36.1270 C   0  0  0  0  0  0  0  0  0  0  0  0
    0.5587  -17.7531   35.0865 C   0  0  0  0  0  0  0  0  0  0  0  0
    2.7771  -17.8195   36.0531 C   0  0  0  0  0  0  0  0  0  0  0  0
    1.0851  -16.5227   37.0978 C   0  0  0  0  0  0  0  0  0  0  0  0
   -1.9649  -16.9351   31.3808 C   0  0  0  0  0  0  0  0  0  0  0  0
   -3.4090  -16.7704   31.0681 C   0  0  0  0  0  0  0  0  0  0  0  0
   -2.1401  -15.1078   32.9784 C   0  0  0  0  0  0  0  0  0  0  0  0
   -5.2273  -15.2881   31.0870 C   0  0  0  0  0  0  0  0  0  0  0  0
   -2.2523  -21.8670   34.9508 C   0  0  0  0  0  0  0  0  0  0  0  0
   -0.9242  -21.7544   35.2848 C   0  0  0  0  0  0  0  0  0  0  0  0
   -0.1778  -20.6222   35.0376 C   0  0  0  0  0  0  0  0  0  0  0  0
   -2.5481  -18.4102   33.4624 N   0  0  0  0  0  0  0  0  0  0  0  0
   -0.3291  -18.2218   34.0167 C   0  0  1  0  0  0  0  0  0  0  0  0
   -2.0171  -16.8447   35.0765 N   0  0  0  0  0  0  0  0  0  0  0  0
    0.2101  -16.9136   36.1192 C   0  0  0  0  0  0  0  0  0  0  0  0
    1.8722  -18.1977   35.0787 C   0  0  0  0  0  0  0  0  0  0  0  0
    2.3949  -16.9779   37.0742 C   0  0  0  0  0  0  0  0  0  0  0  0
   -1.5714  -15.6531   37.0297 O   0  0  0  0  0  0  0  0  0  0  0  0
   -1.4824  -16.4231   32.6934 C   0  0  1  0  0  0  0  0  0  0  0  0
   -4.2039  -15.9748   31.9067 N   0  0  2  0  0  4  0  0  0  0  0  0
   -3.5756  -14.9883   32.6977 C   0  0  0  0  0  0  0  0  0  0  0  0
    0.0130  -16.0899   32.4479 C   0  0  0  0  0  0  0  0  0  0  0  0
  2  1  2  0
  1 13  1  0
  3  2  1  0
 16  2  1  0
  3 15  2  0
 17  3  1  1
  4 16  1  6
  4 17  1  0
  4 18  1  0
 23  4  1  0
 18  5  1  0
  5 19  1  0
  5 22  2  0
 17  6  1  0
  6 19  2  0
  6 20  1  0
 20  7  2  0
  7 21  1  0
 19  8  1  0
  8 21  2  0
  9 10  1  0
  9 23  1  0
 10 24  1  0
 23 11  1  0
 11 25  1  0
 24 12  1  6
 13 14  2  0
 14 15  1  0
 23 26  1  6
 24 25  1  0
M  CHG  1  24   1
M  END
$$$$
