
     RDKit          3D

 26 30  0  0  0  0  0  0  0  0999 V2000
   -1.6404  -21.0212   31.4255 C   0  0  0  0  0  0  0  0  0  0  0  0
   -1.6006  -19.7123   31.9212 C   0  0  0  0  0  0  0  0  0  0  0  0
   -0.4865  -19.2527   32.5739 C   0  0  0  0  0  0  0  0  0  0  0  0
   -2.2338  -17.6925   32.9082 C   0  0  2  0  0  0  0  0  0  0  0  0
   -2.3037  -18.0092   35.4082 C   0  0  0  0  0  0  0  0  0  0  0  0
   -0.1805  -17.6737   34.3198 C   0  0  0  0  0  0  0  0  0  0  0  0
    1.7978  -17.2510   35.6495 C   0  0  0  0  0  0  0  0  0  0  0  0
   -0.2857  -17.6016   36.7323 C   0  0  0  0  0  0  0  0  0  0  0  0
   -2.1662  -15.9593   31.0675 C   0  0  0  0  0  0  0  0  0  0  0  0
   -2.9602  -16.3711   29.8798 C   0  0  0  0  0  0  0  0  0  0  0  0
   -4.1688  -16.1700   32.4337 C   0  0  0  0  0  0  0  0  0  0  0  0
   -5.1097  -16.4937   28.9481 C   0  0  0  0  0  0  0  0  0  0  0  0
   -0.5458  -21.8371   31.6036 C   0  0  0  0  0  0  0  0  0  0  0  0
    0.5549  -21.3447   32.2626 C   0  0  0  0  0  0  0  0  0  0  0  0
    0.6236  -20.0615   32.7615 C   0  0  0  0  0  0  0  0  0  0  0  0
   -2.5818  -18.6698   31.8778 N   0  0  0  0  0  0  0  0  0  0  0  0
   -0.7431  -17.8450   32.9757 C   0  0  1  0  0  0  0  0  0  0  0  0
   -2.8629  -18.1432   34.1098 N   0  0  0  0  0  0  0  0  0  0  0  0
   -0.8736  -17.7584   35.5052 C   0  0  0  0  0  0  0  0  0  0  0  0
    1.1777  -17.4140   34.4246 C   0  0  0  0  0  0  0  0  0  0  0  0
    1.0741  -17.3430   36.8178 C   0  0  0  0  0  0  0  0  0  0  0  0
   -3.0200  -18.1044   36.4352 O   0  0  0  0  0  0  0  0  0  0  0  0
   -2.6818  -16.3496   32.4090 C   0  0  1  0  0  0  0  0  0  0  0  0
   -4.2390  -16.9163   30.0679 N   0  0  2  0  0  4  0  0  0  0  0  0
   -4.9300  -16.6235   31.2639 C   0  0  0  0  0  0  0  0  0  0  0  0
   -2.1210  -15.2639   33.3651 C   0  0  0  0  0  0  0  0  0  0  0  0
  2  1  2  0
  1 13  1  0
  3  2  1  0
 16  2  1  0
  3 15  2  0
 17  3  1  1
  4 16  1  6
  4 17  1  0
  4 18  1  0
 23  4  1  0
 18  5  1  0
  5 19  1  0
  5 22  2  0
 17  6  1  0
  6 19  2  0
  6 20  1  0
 20  7  2  0
  7 21  1  0
 19  8  1  0
  8 21  2  0
  9 10  1  0
  9 23  1  0
 10 24  1  0
 23 11  1  0
 11 25  1  0
 24 12  1  6
 13 14  2  0
 14 15  1  0
 23 26  1  1
 24 25  1  0
M  CHG  1  24   1
M  END
$$$$
