
     RDKit          3D

 26 30  0  0  0  0  0  0  0  0999 V2000
   -6.0100  -15.3810   27.2198 C   0  0  0  0  0  0  0  0  0  0  0  0
   -5.3196  -15.9096   28.3173 C   0  0  0  0  0  0  0  0  0  0  0  0
   -4.2936  -16.7982   28.1273 C   0  0  0  0  0  0  0  0  0  0  0  0
   -4.8489  -16.7932   30.4274 C   0  0  2  0  0  0  0  0  0  0  0  0
   -5.5636  -19.2105   30.4617 C   0  0  0  0  0  0  0  0  0  0  0  0
   -3.4744  -18.6119   29.4213 C   0  0  0  0  0  0  0  0  0  0  0  0
   -1.9116  -20.3457   28.7796 C   0  0  0  0  0  0  0  0  0  0  0  0
   -3.9768  -20.9469   29.7846 C   0  0  0  0  0  0  0  0  0  0  0  0
   -3.2166  -15.2720   31.6183 C   0  0  0  0  0  0  0  0  0  0  0  0
   -3.5683  -13.8363   31.4578 C   0  0  0  0  0  0  0  0  0  0  0  0
   -5.4115  -15.6627   32.5937 C   0  0  0  0  0  0  0  0  0  0  0  0
   -4.9292  -12.0884   32.2301 C   0  0  0  0  0  0  0  0  0  0  0  0
   -5.6431  -15.7670   25.9502 C   0  0  0  0  0  0  0  0  0  0  0  0
   -4.6101  -16.6598   25.7952 C   0  0  0  0  0  0  0  0  0  0  0  0
   -3.9121  -17.1969   26.8556 C   0  0  0  0  0  0  0  0  0  0  0  0
   -5.4917  -15.6857   29.7215 N   0  0  0  0  0  0  0  0  0  0  0  0
   -3.7641  -17.1743   29.4641 C   0  0  1  0  0  0  0  0  0  0  0  0
   -5.8378  -17.8192   30.5378 N   0  0  0  0  0  0  0  0  0  0  0  0
   -4.3005  -19.6184   29.8655 C   0  0  0  0  0  0  0  0  0  0  0  0
   -2.2649  -19.0124   28.8738 C   0  0  0  0  0  0  0  0  0  0  0  0
   -2.7628  -21.3288   29.2334 C   0  0  0  0  0  0  0  0  0  0  0  0
   -6.3839  -20.0571   30.8944 O   0  0  0  0  0  0  0  0  0  0  0  0
   -4.3371  -16.2467   31.7285 C   0  0  1  0  0  0  0  0  0  0  0  0
   -4.9032  -13.4369   31.6206 N   0  0  2  0  0  4  0  0  0  0  0  0
   -5.7653  -14.2539   32.3841 C   0  0  0  0  0  0  0  0  0  0  0  0
   -3.7427  -17.4219   32.5489 C   0  0  0  0  0  0  0  0  0  0  0  0
  2  1  2  0
  1 13  1  0
  3  2  1  0
 16  2  1  0
  3 15  2  0
 17  3  1  6
  4 16  1  6
  4 17  1  0
  4 18  1  0
 23  4  1  0
 18  5  1  0
  5 19  1  0
  5 22  2  0
 17  6  1  0
  6 19  2  0
  6 20  1  0
 20  7  2  0
  7 21  1  0
 19  8  1  0
  8 21  2  0
  9 10  1  0
  9 23  1  0
 10 24  1  0
 23 11  1  0
 11 25  1  0
 24 12  1  1
 13 14  2  0
 14 15  1  0
 23 26  1  1
 24 25  1  0
M  CHG  1  24   1
M  END
$$$$
