
     RDKit          3D

 26 30  0  0  0  0  0  0  0  0999 V2000
   -7.2564  -14.1446   29.7384 C   0  0  0  0  0  0  0  0  0  0  0  0
   -6.3116  -15.1516   29.9709 C   0  0  0  0  0  0  0  0  0  0  0  0
   -5.9903  -16.0418   28.9796 C   0  0  0  0  0  0  0  0  0  0  0  0
   -5.0759  -16.8384   31.0114 C   0  0  2  0  0  0  0  0  0  0  0  0
   -6.4585  -18.9462   31.0355 C   0  0  0  0  0  0  0  0  0  0  0  0
   -5.3049  -18.3142   29.0168 C   0  0  0  0  0  0  0  0  0  0  0  0
   -5.1557  -19.8810   27.1776 C   0  0  0  0  0  0  0  0  0  0  0  0
   -6.3129  -20.5054   29.1543 C   0  0  0  0  0  0  0  0  0  0  0  0
   -2.8824  -15.7182   31.5864 C   0  0  0  0  0  0  0  0  0  0  0  0
   -3.0532  -14.6295   32.5845 C   0  0  0  0  0  0  0  0  0  0  0  0
   -3.8768  -17.2758   33.1698 C   0  0  0  0  0  0  0  0  0  0  0  0
   -3.2894  -14.1252   34.8634 C   0  0  0  0  0  0  0  0  0  0  0  0
   -7.8559  -14.0631   28.5017 C   0  0  0  0  0  0  0  0  0  0  0  0
   -7.5109  -14.9716   27.5302 C   0  0  0  0  0  0  0  0  0  0  0  0
   -6.5849  -15.9732   27.7292 C   0  0  0  0  0  0  0  0  0  0  0  0
   -5.5507  -15.4617   31.1440 N   0  0  0  0  0  0  0  0  0  0  0  0
   -4.9709  -16.9777   29.5216 C   0  0  1  0  0  0  0  0  0  0  0  0
   -6.1110  -17.6671   31.5450 N   0  0  0  0  0  0  0  0  0  0  0  0
   -6.0218  -19.2779   29.6877 C   0  0  0  0  0  0  0  0  0  0  0  0
   -4.8767  -18.6498   27.7413 C   0  0  0  0  0  0  0  0  0  0  0  0
   -5.8769  -20.8234   27.8767 C   0  0  0  0  0  0  0  0  0  0  0  0
   -7.1197  -19.7607   31.7257 O   0  0  0  0  0  0  0  0  0  0  0  0
   -3.7551  -16.9175   31.7203 C   0  0  1  0  0  0  0  0  0  0  0  0
   -3.8617  -14.8533   33.7089 N   0  0  2  0  0  4  0  0  0  0  0  0
   -4.0857  -16.1832   34.1269 C   0  0  0  0  0  0  0  0  0  0  0  0
   -2.9289  -18.0651   31.0816 C   0  0  0  0  0  0  0  0  0  0  0  0
  2  1  2  0
  1 13  1  0
  3  2  1  0
 16  2  1  0
  3 15  2  0
 17  3  1  6
  4 16  1  6
  4 17  1  0
  4 18  1  0
 23  4  1  0
 18  5  1  0
  5 19  1  0
  5 22  2  0
 17  6  1  0
  6 19  2  0
  6 20  1  0
 20  7  2  0
  7 21  1  0
 19  8  1  0
  8 21  2  0
  9 10  1  0
  9 23  1  0
 10 24  1  0
 23 11  1  0
 11 25  1  0
 24 12  1  1
 13 14  2  0
 14 15  1  0
 23 26  1  6
 24 25  1  0
M  CHG  1  24   1
M  END
$$$$
