
     RDKit          3D

 26 30  0  0  0  0  0  0  0  0999 V2000
   -6.9366  -19.5823   29.8539 C   0  0  0  0  0  0  0  0  0  0  0  0
   -6.3124  -18.4612   29.2935 C   0  0  0  0  0  0  0  0  0  0  0  0
   -6.7782  -17.9225   28.1225 C   0  0  0  0  0  0  0  0  0  0  0  0
   -4.6741  -16.9495   28.5967 C   0  0  2  0  0  0  0  0  0  0  0  0
   -3.5627  -17.8687   26.5290 C   0  0  0  0  0  0  0  0  0  0  0  0
   -5.7066  -16.7864   26.3348 C   0  0  0  0  0  0  0  0  0  0  0  0
   -6.5832  -16.2413   24.1451 C   0  0  0  0  0  0  0  0  0  0  0  0
   -4.4796  -17.3269   24.3251 C   0  0  0  0  0  0  0  0  0  0  0  0
   -5.0188  -14.8530   29.9688 C   0  0  0  0  0  0  0  0  0  0  0  0
   -5.0581  -15.1375   31.4276 C   0  0  0  0  0  0  0  0  0  0  0  0
   -2.8067  -15.8622   29.8689 C   0  0  0  0  0  0  0  0  0  0  0  0
   -3.7705  -15.5352   33.3479 C   0  0  0  0  0  0  0  0  0  0  0  0
   -8.0226  -20.1336   29.2118 C   0  0  0  0  0  0  0  0  0  0  0  0
   -8.4637  -19.5687   28.0395 C   0  0  0  0  0  0  0  0  0  0  0  0
   -7.8703  -18.4657   27.4638 C   0  0  0  0  0  0  0  0  0  0  0  0
   -5.1834  -17.7024   29.7420 N   0  0  0  0  0  0  0  0  0  0  0  0
   -5.9211  -16.7559   27.7858 C   0  0  1  0  0  0  0  0  0  0  0  0
   -3.7466  -17.8133   27.9361 N   0  0  0  0  0  0  0  0  0  0  0  0
   -4.6143  -17.3171   25.6881 C   0  0  0  0  0  0  0  0  0  0  0  0
   -6.6925  -16.2454   25.5233 C   0  0  0  0  0  0  0  0  0  0  0  0
   -5.4761  -16.7819   23.5293 C   0  0  0  0  0  0  0  0  0  0  0  0
   -2.5281  -18.3763   26.0304 O   0  0  0  0  0  0  0  0  0  0  0  0
   -4.0974  -15.6714   29.1327 C   0  0  1  0  0  0  0  0  0  0  0  0
   -4.1008  -16.0000   31.9821 N   0  0  2  0  0  4  0  0  0  0  0  0
   -2.8785  -16.1824   31.2992 C   0  0  0  0  0  0  0  0  0  0  0  0
   -3.7529  -14.7522   27.9312 C   0  0  0  0  0  0  0  0  0  0  0  0
  2  1  2  0
  1 13  1  0
  3  2  1  0
 16  2  1  0
  3 15  2  0
 17  3  1  6
  4 16  1  1
  4 17  1  0
  4 18  1  0
 23  4  1  0
 18  5  1  0
  5 19  1  0
  5 22  2  0
 17  6  1  0
  6 19  2  0
  6 20  1  0
 20  7  2  0
  7 21  1  0
 19  8  1  0
  8 21  2  0
  9 10  1  0
  9 23  1  0
 10 24  1  0
 23 11  1  0
 11 25  1  0
 24 12  1  1
 13 14  2  0
 14 15  1  0
 23 26  1  6
 24 25  1  0
M  CHG  1  24   1
M  END
$$$$
