
     RDKit          3D

 26 30  0  0  0  0  0  0  0  0999 V2000
   -6.6373  -18.3328   28.7625 C   0  0  0  0  0  0  0  0  0  0  0  0
   -5.4999  -18.1259   29.5524 C   0  0  0  0  0  0  0  0  0  0  0  0
   -4.3524  -18.8362   29.3135 C   0  0  0  0  0  0  0  0  0  0  0  0
   -4.1177  -17.7331   31.3936 C   0  0  2  0  0  0  0  0  0  0  0  0
   -3.9326  -19.8650   32.7262 C   0  0  0  0  0  0  0  0  0  0  0  0
   -2.6085  -19.6017   30.7305 C   0  0  0  0  0  0  0  0  0  0  0  0
   -0.8452  -21.1863   30.2410 C   0  0  0  0  0  0  0  0  0  0  0  0
   -2.1583  -21.4666   32.1988 C   0  0  0  0  0  0  0  0  0  0  0  0
   -3.0648  -15.4647   31.0159 C   0  0  0  0  0  0  0  0  0  0  0  0
   -4.0794  -14.4157   30.7316 C   0  0  0  0  0  0  0  0  0  0  0  0
   -4.1840  -15.9229   33.1275 C   0  0  0  0  0  0  0  0  0  0  0  0
   -5.6377  -12.9371   31.6745 C   0  0  0  0  0  0  0  0  0  0  0  0
   -6.5851  -19.2586   27.7448 C   0  0  0  0  0  0  0  0  0  0  0  0
   -5.4189  -19.9536   27.5325 C   0  0  0  0  0  0  0  0  0  0  0  0
   -4.2836  -19.7719   28.2929 C   0  0  0  0  0  0  0  0  0  0  0  0
   -5.2823  -17.2421   30.6583 N   0  0  0  0  0  0  0  0  0  0  0  0
   -3.3328  -18.3996   30.3029 C   0  0  1  0  0  0  0  0  0  0  0  0
   -4.6172  -18.6832   32.3374 N   0  0  0  0  0  0  0  0  0  0  0  0
   -2.8643  -20.3424   31.8614 C   0  0  0  0  0  0  0  0  0  0  0  0
   -1.5747  -20.0552   29.9251 C   0  0  0  0  0  0  0  0  0  0  0  0
   -1.1279  -21.9057   31.3810 C   0  0  0  0  0  0  0  0  0  0  0  0
   -4.2403  -20.4750   33.7798 O   0  0  0  0  0  0  0  0  0  0  0  0
   -3.4338  -16.5343   31.9842 C   0  0  1  0  0  0  0  0  0  0  0  0
   -5.2383  -14.3538   31.5196 N   0  0  2  0  0  4  0  0  0  0  0  0
   -5.2080  -14.9200   32.8127 C   0  0  0  0  0  0  0  0  0  0  0  0
   -2.0776  -16.9939   32.5817 C   0  0  0  0  0  0  0  0  0  0  0  0
  2  1  2  0
  1 13  1  0
  3  2  1  0
 16  2  1  0
  3 15  2  0
 17  3  1  6
  4 16  1  6
  4 17  1  0
  4 18  1  0
 23  4  1  0
 18  5  1  0
  5 19  1  0
  5 22  2  0
 17  6  1  0
  6 19  2  0
  6 20  1  0
 20  7  2  0
  7 21  1  0
 19  8  1  0
  8 21  2  0
  9 10  1  0
  9 23  1  0
 10 24  1  0
 23 11  1  0
 11 25  1  0
 24 12  1  1
 13 14  2  0
 14 15  1  0
 23 26  1  1
 24 25  1  0
M  CHG  1  24   1
M  END
$$$$
