
     RDKit          3D

 27 29  0  0  0  0  0  0  0  0999 V2000
    0.4718    9.6784  220.6949 C   0  0  0  0  0  0  0  0  0  0  0  0
    0.1012   10.9808  220.5285 C   0  0  0  0  0  0  0  0  0  0  0  0
   -1.1506   11.2520  220.0218 C   0  0  0  0  0  0  0  0  0  0  0  0
    2.1558   10.9313  221.3549 C   0  0  0  0  0  0  0  0  0  0  0  0
   -1.9546   10.2189  219.7124 N   0  0  0  0  0  0  0  0  0  0  0  0
   -0.3673    8.6827  220.3705 N   0  0  0  0  0  0  0  0  0  0  0  0
    1.4646    7.1609  224.9006 C   0  0  0  0  0  0  0  0  0  0  0  0
    1.2929    7.9612  223.6319 C   0  0  0  0  0  0  0  0  0  0  0  0
    2.6233    8.3367  223.0300 C   0  0  0  0  0  0  0  0  0  0  0  0
    2.4349    8.4511  221.5246 C   0  0  0  0  0  0  0  0  0  0  0  0
    1.7191    9.6779  221.1970 N   0  0  0  0  0  0  0  0  0  0  0  0
   -1.5957    8.9354  219.8735 C   0  0  0  0  0  0  0  0  0  0  0  0
   -1.5346   12.6064  219.8498 N   0  0  0  0  0  0  0  0  0  0  0  0
    1.1451   11.7209  220.9380 N   0  0  0  0  0  0  0  0  0  0  0  0
    3.4657   11.3107  221.8604 C   0  0  0  0  0  0  0  0  0  0  0  0
    4.3848   11.9133  220.8781 C   0  0  0  0  0  0  0  0  0  0  0  0
    4.5446   13.2549  220.6522 C   0  0  0  0  0  0  0  0  0  0  0  0
    5.1416   10.9915  220.1313 C   0  0  0  0  0  0  0  0  0  0  0  0
    6.0420   11.4029  219.1757 C   0  0  0  0  0  0  0  0  0  0  0  0
    6.7770   10.4730  218.4529 O   0  0  0  0  0  0  0  0  0  0  0  0
    6.7201    9.0919  218.6662 C   0  0  0  0  0  0  0  0  0  0  0  0
    6.1938   12.7483  218.9580 C   0  0  0  0  0  0  0  0  0  0  0  0
    7.1083   13.1551  217.9875 O   0  0  0  0  0  0  0  0  0  0  0  0
    8.5089   13.0739  218.2217 C   0  0  0  0  0  0  0  0  0  0  0  0
    5.4433   13.6669  219.6985 C   0  0  0  0  0  0  0  0  0  0  0  0
    5.6384   14.9939  219.4368 O   0  0  0  0  0  0  0  0  0  0  0  0
    4.9084   15.9694  220.1525 C   0  0  0  0  0  0  0  0  0  0  0  0
  1  2  1  0
  1  6  2  0
 11  1  1  0
  2  3  2  0
 14  2  1  0
  3  5  1  0
  3 13  1  0
 11  4  1  0
  4 14  2  0
  4 15  1  0
 12  5  2  0
  6 12  1  0
  8  7  1  0
  9  8  1  0
 10  9  1  0
 10 11  1  0
 15 16  1  0
 16 17  2  0
 16 18  1  0
 17 25  1  0
 18 19  2  0
 19 20  1  0
 19 22  1  0
 20 21  1  0
 22 23  1  0
 22 25  2  0
 23 24  1  0
 25 26  1  0
 26 27  1  0
M  END
$$$$
