
     RDKit          3D

 27 29  0  0  0  0  0  0  0  0999 V2000
    0.6881   10.8320  221.0894 C   0  0  0  0  0  0  0  0  0  0  0  0
   -0.2879   11.2430  220.2294 C   0  0  0  0  0  0  0  0  0  0  0  0
   -1.5852   10.8429  220.4623 C   0  0  0  0  0  0  0  0  0  0  0  0
    1.6497   12.0712  219.5463 C   0  0  0  0  0  0  0  0  0  0  0  0
   -1.8337   10.0627  221.5295 N   0  0  0  0  0  0  0  0  0  0  0  0
    0.3887   10.0532  222.1404 N   0  0  0  0  0  0  0  0  0  0  0  0
    3.0438    8.6802  219.5371 C   0  0  0  0  0  0  0  0  0  0  0  0
    3.9339    8.9102  220.7348 C   0  0  0  0  0  0  0  0  0  0  0  0
    3.2224    9.6899  221.8114 C   0  0  0  0  0  0  0  0  0  0  0  0
    3.1155   11.1338  221.3437 C   0  0  0  0  0  0  0  0  0  0  0  0
    1.8501   11.3483  220.6526 N   0  0  0  0  0  0  0  0  0  0  0  0
   -0.8777    9.6548  222.3792 C   0  0  0  0  0  0  0  0  0  0  0  0
   -2.5989   11.2713  219.5676 N   0  0  0  0  0  0  0  0  0  0  0  0
    0.3258   11.9951  219.3006 N   0  0  0  0  0  0  0  0  0  0  0  0
    2.6829   12.7631  218.7921 C   0  0  0  0  0  0  0  0  0  0  0  0
    4.0433   12.6993  219.3562 C   0  0  0  0  0  0  0  0  0  0  0  0
    4.5894   13.6036  220.2282 C   0  0  0  0  0  0  0  0  0  0  0  0
    4.8094   11.5974  218.9331 C   0  0  0  0  0  0  0  0  0  0  0  0
    6.0983   11.4027  219.3734 C   0  0  0  0  0  0  0  0  0  0  0  0
    6.8328   10.3068  218.9411 O   0  0  0  0  0  0  0  0  0  0  0  0
    6.2786    9.1970  218.2951 C   0  0  0  0  0  0  0  0  0  0  0  0
    6.6348   12.3143  220.2461 C   0  0  0  0  0  0  0  0  0  0  0  0
    7.9416   12.1083  220.6862 O   0  0  0  0  0  0  0  0  0  0  0  0
    8.9789   13.0227  220.3530 C   0  0  0  0  0  0  0  0  0  0  0  0
    5.8761   13.4103  220.6685 C   0  0  0  0  0  0  0  0  0  0  0  0
    6.4648   14.2842  221.5387 O   0  0  0  0  0  0  0  0  0  0  0  0
    5.8044   15.4829  221.8902 C   0  0  0  0  0  0  0  0  0  0  0  0
  1  2  1  0
  1  6  2  0
 11  1  1  0
  2  3  2  0
 14  2  1  0
  3  5  1  0
  3 13  1  0
 11  4  1  0
  4 14  2  0
  4 15  1  0
 12  5  2  0
  6 12  1  0
  8  7  1  0
  9  8  1  0
 10  9  1  0
 10 11  1  0
 15 16  1  0
 16 17  2  0
 16 18  1  0
 17 25  1  0
 18 19  2  0
 19 20  1  0
 19 22  1  0
 20 21  1  0
 22 23  1  0
 22 25  2  0
 23 24  1  0
 25 26  1  0
 26 27  1  0
M  END
$$$$
