
     RDKit          3D

 27 29  0  0  0  0  0  0  0  0999 V2000
    0.7557   10.1142  221.0505 C   0  0  0  0  0  0  0  0  0  0  0  0
    0.0404   10.9122  220.2062 C   0  0  0  0  0  0  0  0  0  0  0  0
   -1.2958   11.1210  220.4680 C   0  0  0  0  0  0  0  0  0  0  0  0
    2.1298   10.8079  219.4781 C   0  0  0  0  0  0  0  0  0  0  0  0
   -1.8381   10.5278  221.5467 N   0  0  0  0  0  0  0  0  0  0  0  0
    0.1680    9.5446  222.1139 N   0  0  0  0  0  0  0  0  0  0  0  0
    5.0908    7.5177  219.7227 C   0  0  0  0  0  0  0  0  0  0  0  0
    3.5865    7.5827  219.6112 C   0  0  0  0  0  0  0  0  0  0  0  0
    2.9427    7.8363  220.9508 C   0  0  0  0  0  0  0  0  0  0  0  0
    3.0747    9.3213  221.2545 C   0  0  0  0  0  0  0  0  0  0  0  0
    2.0169   10.0693  220.5865 N   0  0  0  0  0  0  0  0  0  0  0  0
   -1.1396    9.7414  222.3809 C   0  0  0  0  0  0  0  0  0  0  0  0
   -2.0381   11.9510  219.5897 N   0  0  0  0  0  0  0  0  0  0  0  0
    0.9016   11.3199  219.2591 N   0  0  0  0  0  0  0  0  0  0  0  0
    3.3453   10.9774  218.6977 C   0  0  0  0  0  0  0  0  0  0  0  0
    4.3548   11.8874  219.2685 C   0  0  0  0  0  0  0  0  0  0  0  0
    4.0992   13.1047  219.8425 C   0  0  0  0  0  0  0  0  0  0  0  0
    5.6811   11.4231  219.1938 C   0  0  0  0  0  0  0  0  0  0  0  0
    6.7332   12.1620  219.6839 C   0  0  0  0  0  0  0  0  0  0  0  0
    8.0327   11.6810  219.5983 O   0  0  0  0  0  0  0  0  0  0  0  0
    8.4395   10.6742  218.7168 C   0  0  0  0  0  0  0  0  0  0  0  0
    6.4656   13.3791  220.2563 C   0  0  0  0  0  0  0  0  0  0  0  0
    7.5385   14.1204  220.7495 O   0  0  0  0  0  0  0  0  0  0  0  0
    7.8290   14.1504  222.1415 C   0  0  0  0  0  0  0  0  0  0  0  0
    5.1487   13.8433  220.3321 C   0  0  0  0  0  0  0  0  0  0  0  0
    4.9449   15.0631  220.9136 O   0  0  0  0  0  0  0  0  0  0  0  0
    3.6385   15.5948  220.9991 C   0  0  0  0  0  0  0  0  0  0  0  0
  1  2  1  0
  1  6  2  0
 11  1  1  0
  2  3  2  0
 14  2  1  0
  3  5  1  0
  3 13  1  0
 11  4  1  0
  4 14  2  0
  4 15  1  0
 12  5  2  0
  6 12  1  0
  8  7  1  0
  9  8  1  0
 10  9  1  0
 10 11  1  0
 15 16  1  0
 16 17  2  0
 16 18  1  0
 17 25  1  0
 18 19  2  0
 19 20  1  0
 19 22  1  0
 20 21  1  0
 22 23  1  0
 22 25  2  0
 23 24  1  0
 25 26  1  0
 26 27  1  0
M  END
$$$$
