
     RDKit          3D

 27 29  0  0  0  0  0  0  0  0999 V2000
    0.6984   10.3544  221.3210 C   0  0  0  0  0  0  0  0  0  0  0  0
   -0.0513   11.1774  220.5324 C   0  0  0  0  0  0  0  0  0  0  0  0
   -1.3509   11.4442  220.9033 C   0  0  0  0  0  0  0  0  0  0  0  0
    1.9633   10.9803  219.6329 C   0  0  0  0  0  0  0  0  0  0  0  0
   -1.8249   10.8805  222.0289 N   0  0  0  0  0  0  0  0  0  0  0  0
    0.1788    9.8161  222.4350 N   0  0  0  0  0  0  0  0  0  0  0  0
    3.7203    6.6543  222.5047 C   0  0  0  0  0  0  0  0  0  0  0  0
    2.6628    7.0461  221.5007 C   0  0  0  0  0  0  0  0  0  0  0  0
    3.1445    8.1478  220.5910 C   0  0  0  0  0  0  0  0  0  0  0  0
    2.9911    9.4648  221.3373 C   0  0  0  0  0  0  0  0  0  0  0  0
    1.9131   10.2534  220.7535 N   0  0  0  0  0  0  0  0  0  0  0  0
   -1.0923   10.0698  222.8088 C   0  0  0  0  0  0  0  0  0  0  0  0
   -2.1289   12.3002  220.0827 N   0  0  0  0  0  0  0  0  0  0  0  0
    0.7435   11.5429  219.5128 N   0  0  0  0  0  0  0  0  0  0  0  0
    3.1150   11.0938  218.7520 C   0  0  0  0  0  0  0  0  0  0  0  0
    4.2575   11.8598  219.2819 C   0  0  0  0  0  0  0  0  0  0  0  0
    5.5707   11.4736  219.2301 C   0  0  0  0  0  0  0  0  0  0  0  0
    3.9207   13.0862  219.8841 C   0  0  0  0  0  0  0  0  0  0  0  0
    4.8791   13.9120  220.4250 C   0  0  0  0  0  0  0  0  0  0  0  0
    4.5205   15.1173  221.0131 O   0  0  0  0  0  0  0  0  0  0  0  0
    3.2095   15.6009  221.0733 C   0  0  0  0  0  0  0  0  0  0  0  0
    6.1905   13.5153  220.3677 C   0  0  0  0  0  0  0  0  0  0  0  0
    7.1541   14.3588  220.9189 O   0  0  0  0  0  0  0  0  0  0  0  0
    7.3163   14.4625  222.3281 C   0  0  0  0  0  0  0  0  0  0  0  0
    6.5285   12.2971  219.7698 C   0  0  0  0  0  0  0  0  0  0  0  0
    7.8516   11.9562  219.7426 O   0  0  0  0  0  0  0  0  0  0  0  0
    8.2740   10.8248  219.0090 C   0  0  0  0  0  0  0  0  0  0  0  0
  1  2  1  0
  1  6  2  0
 11  1  1  0
  2  3  2  0
 14  2  1  0
  3  5  1  0
  3 13  1  0
 11  4  1  0
  4 14  2  0
  4 15  1  0
 12  5  2  0
  6 12  1  0
  8  7  1  0
  9  8  1  0
 10  9  1  0
 10 11  1  0
 15 16  1  0
 16 17  2  0
 16 18  1  0
 17 25  1  0
 18 19  2  0
 19 20  1  0
 19 22  1  0
 20 21  1  0
 22 23  1  0
 22 25  2  0
 23 24  1  0
 25 26  1  0
 26 27  1  0
M  END
$$$$
