
     RDKit          3D

 27 29  0  0  0  0  0  0  0  0999 V2000
    0.9505   10.1252  221.2415 C   0  0  0  0  0  0  0  0  0  0  0  0
    0.1652   10.9006  220.4395 C   0  0  0  0  0  0  0  0  0  0  0  0
   -1.1670   11.0443  220.7589 C   0  0  0  0  0  0  0  0  0  0  0  0
    2.2251   10.9020  219.6249 C   0  0  0  0  0  0  0  0  0  0  0  0
   -1.6364   10.4126  221.8498 N   0  0  0  0  0  0  0  0  0  0  0  0
    0.4340    9.5151  222.3193 N   0  0  0  0  0  0  0  0  0  0  0  0
    2.7708    7.6006  218.5837 C   0  0  0  0  0  0  0  0  0  0  0  0
    3.8386    7.7578  219.6395 C   0  0  0  0  0  0  0  0  0  0  0  0
    3.2384    7.9532  221.0088 C   0  0  0  0  0  0  0  0  0  0  0  0
    3.3096    9.4369  221.3382 C   0  0  0  0  0  0  0  0  0  0  0  0
    2.1920   10.1444  220.7256 N   0  0  0  0  0  0  0  0  0  0  0  0
   -0.8689    9.6481  222.6426 C   0  0  0  0  0  0  0  0  0  0  0  0
   -1.9821   11.8510  219.9245 N   0  0  0  0  0  0  0  0  0  0  0  0
    0.9668   11.3600  219.4641 N   0  0  0  0  0  0  0  0  0  0  0  0
    3.3981   11.1375  218.7980 C   0  0  0  0  0  0  0  0  0  0  0  0
    4.4921   11.8940  219.4335 C   0  0  0  0  0  0  0  0  0  0  0  0
    5.8040   11.5043  219.4915 C   0  0  0  0  0  0  0  0  0  0  0  0
    4.1070   13.1148  220.0180 C   0  0  0  0  0  0  0  0  0  0  0  0
    5.0167   13.9315  220.6493 C   0  0  0  0  0  0  0  0  0  0  0  0
    4.6111   15.1314  221.2175 O   0  0  0  0  0  0  0  0  0  0  0  0
    3.2913   15.5942  221.2136 C   0  0  0  0  0  0  0  0  0  0  0  0
    6.3273   13.5313  220.7013 C   0  0  0  0  0  0  0  0  0  0  0  0
    7.2413   14.3656  221.3434 O   0  0  0  0  0  0  0  0  0  0  0  0
    8.1208   15.1989  220.5983 C   0  0  0  0  0  0  0  0  0  0  0  0
    6.7132   12.3188  220.1214 C   0  0  0  0  0  0  0  0  0  0  0  0
    8.0329   11.9739  220.2052 O   0  0  0  0  0  0  0  0  0  0  0  0
    8.4663   10.7182  219.7236 C   0  0  0  0  0  0  0  0  0  0  0  0
  1  2  1  0
  1  6  2  0
 11  1  1  0
  2  3  2  0
 14  2  1  0
  3  5  1  0
  3 13  1  0
 11  4  1  0
  4 14  2  0
  4 15  1  0
 12  5  2  0
  6 12  1  0
  8  7  1  0
  9  8  1  0
 10  9  1  0
 10 11  1  0
 15 16  1  0
 16 17  2  0
 16 18  1  0
 17 25  1  0
 18 19  2  0
 19 20  1  0
 19 22  1  0
 20 21  1  0
 22 23  1  0
 22 25  2  0
 23 24  1  0
 25 26  1  0
 26 27  1  0
M  END
$$$$
