
     RDKit          3D

 27 29  0  0  0  0  0  0  0  0999 V2000
    0.7932   10.5008  219.9854 C   0  0  0  0  0  0  0  0  0  0  0  0
    0.3922   11.0201  221.1815 C   0  0  0  0  0  0  0  0  0  0  0  0
   -0.9446   11.2958  221.3672 C   0  0  0  0  0  0  0  0  0  0  0  0
    2.5844   10.7094  221.2462 C   0  0  0  0  0  0  0  0  0  0  0  0
   -1.7979   11.0405  220.3592 N   0  0  0  0  0  0  0  0  0  0  0  0
   -0.0977   10.2643  219.0103 N   0  0  0  0  0  0  0  0  0  0  0  0
    5.3494    8.0336  217.9815 C   0  0  0  0  0  0  0  0  0  0  0  0
    3.8700    7.7316  217.9888 C   0  0  0  0  0  0  0  0  0  0  0  0
    3.1972    8.2906  219.2168 C   0  0  0  0  0  0  0  0  0  0  0  0
    2.8988    9.7591  218.9535 C   0  0  0  0  0  0  0  0  0  0  0  0
    2.1242   10.3220  220.0526 N   0  0  0  0  0  0  0  0  0  0  0  0
   -1.4093   10.5300  219.1800 C   0  0  0  0  0  0  0  0  0  0  0  0
   -1.3601   11.8352  222.6114 N   0  0  0  0  0  0  0  0  0  0  0  0
    1.5026   11.1365  221.9288 N   0  0  0  0  0  0  0  0  0  0  0  0
    3.9765   10.6729  221.6658 C   0  0  0  0  0  0  0  0  0  0  0  0
    4.8458   11.7224  221.1039 C   0  0  0  0  0  0  0  0  0  0  0  0
    4.7089   13.0693  221.3127 C   0  0  0  0  0  0  0  0  0  0  0  0
    5.8919   11.2520  220.2887 C   0  0  0  0  0  0  0  0  0  0  0  0
    6.7853   12.1121  219.6928 C   0  0  0  0  0  0  0  0  0  0  0  0
    7.8092   11.6223  218.8934 O   0  0  0  0  0  0  0  0  0  0  0  0
    8.1610   10.2712  218.8104 C   0  0  0  0  0  0  0  0  0  0  0  0
    6.6387   13.4584  219.9088 C   0  0  0  0  0  0  0  0  0  0  0  0
    7.5487   14.3217  219.3003 O   0  0  0  0  0  0  0  0  0  0  0  0
    7.1547   15.1565  218.2182 C   0  0  0  0  0  0  0  0  0  0  0  0
    5.6001   13.9290  220.7183 C   0  0  0  0  0  0  0  0  0  0  0  0
    5.5054   15.2806  220.8964 O   0  0  0  0  0  0  0  0  0  0  0  0
    4.4753   15.8160  221.7021 C   0  0  0  0  0  0  0  0  0  0  0  0
  1  2  1  0
  1  6  2  0
 11  1  1  0
  2  3  2  0
 14  2  1  0
  3  5  1  0
  3 13  1  0
 11  4  1  0
  4 14  2  0
  4 15  1  0
 12  5  2  0
  6 12  1  0
  8  7  1  0
  9  8  1  0
 10  9  1  0
 10 11  1  0
 15 16  1  0
 16 17  2  0
 16 18  1  0
 17 25  1  0
 18 19  2  0
 19 20  1  0
 19 22  1  0
 20 21  1  0
 22 23  1  0
 22 25  2  0
 23 24  1  0
 25 26  1  0
 26 27  1  0
M  END
$$$$
