
     RDKit          3D

 27 29  0  0  0  0  0  0  0  0999 V2000
    0.3695   10.1769  219.9232 C   0  0  0  0  0  0  0  0  0  0  0  0
    0.0880   11.0973  220.8901 C   0  0  0  0  0  0  0  0  0  0  0  0
   -1.2069   11.5501  221.0144 C   0  0  0  0  0  0  0  0  0  0  0  0
    2.2464   10.6086  220.9873 C   0  0  0  0  0  0  0  0  0  0  0  0
   -2.1393   11.0642  220.1753 N   0  0  0  0  0  0  0  0  0  0  0  0
   -0.5968    9.7231  219.1101 N   0  0  0  0  0  0  0  0  0  0  0  0
    1.0537    6.5185  219.0571 C   0  0  0  0  0  0  0  0  0  0  0  0
    1.9102    6.8068  220.2667 C   0  0  0  0  0  0  0  0  0  0  0  0
    2.9778    7.8259  219.9586 C   0  0  0  0  0  0  0  0  0  0  0  0
    2.3377    8.9320  219.1329 C   0  0  0  0  0  0  0  0  0  0  0  0
    1.6824    9.8986  220.0052 N   0  0  0  0  0  0  0  0  0  0  0  0
   -1.8685   10.1588  219.2218 C   0  0  0  0  0  0  0  0  0  0  0  0
   -1.4981   12.5066  222.0202 N   0  0  0  0  0  0  0  0  0  0  0  0
    1.2484   11.3415  221.5217 N   0  0  0  0  0  0  0  0  0  0  0  0
    3.6538   10.5737  221.3522 C   0  0  0  0  0  0  0  0  0  0  0  0
    4.5422   11.4570  220.5754 C   0  0  0  0  0  0  0  0  0  0  0  0
    5.4812   11.0461  219.6667 C   0  0  0  0  0  0  0  0  0  0  0  0
    4.3750   12.8321  220.8230 C   0  0  0  0  0  0  0  0  0  0  0  0
    5.1327   13.7797  220.1741 C   0  0  0  0  0  0  0  0  0  0  0  0
    4.9476   15.1304  220.4360 O   0  0  0  0  0  0  0  0  0  0  0  0
    3.9810   15.6338  221.3126 C   0  0  0  0  0  0  0  0  0  0  0  0
    6.0697   13.3569  219.2665 C   0  0  0  0  0  0  0  0  0  0  0  0
    6.8326   14.3248  218.6145 O   0  0  0  0  0  0  0  0  0  0  0  0
    6.2187   15.3073  217.7894 C   0  0  0  0  0  0  0  0  0  0  0  0
    6.2383   11.9911  219.0182 C   0  0  0  0  0  0  0  0  0  0  0  0
    7.1873   11.6312  218.1031 O   0  0  0  0  0  0  0  0  0  0  0  0
    7.7447   10.3332  218.1375 C   0  0  0  0  0  0  0  0  0  0  0  0
  1  2  1  0
  1  6  2  0
 11  1  1  0
  2  3  2  0
 14  2  1  0
  3  5  1  0
  3 13  1  0
 11  4  1  0
  4 14  2  0
  4 15  1  0
 12  5  2  0
  6 12  1  0
  8  7  1  0
  9  8  1  0
 10  9  1  0
 10 11  1  0
 15 16  1  0
 16 17  2  0
 16 18  1  0
 17 25  1  0
 18 19  2  0
 19 20  1  0
 19 22  1  0
 20 21  1  0
 22 23  1  0
 22 25  2  0
 23 24  1  0
 25 26  1  0
 26 27  1  0
M  END
$$$$
