
     RDKit          3D

 27 29  0  0  0  0  0  0  0  0999 V2000
    0.3013    9.9275  221.0044 C   0  0  0  0  0  0  0  0  0  0  0  0
   -0.4143   10.7557  220.1900 C   0  0  0  0  0  0  0  0  0  0  0  0
   -1.7446   10.9733  220.4735 C   0  0  0  0  0  0  0  0  0  0  0  0
    1.6648   10.6458  219.4339 C   0  0  0  0  0  0  0  0  0  0  0  0
   -2.2811   10.3586  221.5430 N   0  0  0  0  0  0  0  0  0  0  0  0
   -0.2805    9.3372  222.0597 N   0  0  0  0  0  0  0  0  0  0  0  0
    3.4235    6.5971  222.5664 C   0  0  0  0  0  0  0  0  0  0  0  0
    3.8570    6.9959  221.1761 C   0  0  0  0  0  0  0  0  0  0  0  0
    2.7753    7.7619  220.4576 C   0  0  0  0  0  0  0  0  0  0  0  0
    2.6128    9.1022  221.1592 C   0  0  0  0  0  0  0  0  0  0  0  0
    1.5562    9.8799  220.5240 N   0  0  0  0  0  0  0  0  0  0  0  0
   -1.5823    9.5425  222.3478 C   0  0  0  0  0  0  0  0  0  0  0  0
   -2.4873   11.8349  219.6263 N   0  0  0  0  0  0  0  0  0  0  0  0
    0.4404   11.1779  219.2433 N   0  0  0  0  0  0  0  0  0  0  0  0
    2.8729   10.8213  218.6433 C   0  0  0  0  0  0  0  0  0  0  0  0
    3.9105   11.6840  219.2366 C   0  0  0  0  0  0  0  0  0  0  0  0
    3.6906   12.8817  219.8640 C   0  0  0  0  0  0  0  0  0  0  0  0
    5.2247   11.1938  219.1236 C   0  0  0  0  0  0  0  0  0  0  0  0
    6.3000   11.8880  219.6286 C   0  0  0  0  0  0  0  0  0  0  0  0
    7.5868   11.3821  219.5045 O   0  0  0  0  0  0  0  0  0  0  0  0
    7.9336   10.3192  218.6641 C   0  0  0  0  0  0  0  0  0  0  0  0
    6.0680   13.0858  220.2546 C   0  0  0  0  0  0  0  0  0  0  0  0
    7.1641   13.7818  220.7625 O   0  0  0  0  0  0  0  0  0  0  0  0
    7.7045   14.9014  220.0715 C   0  0  0  0  0  0  0  0  0  0  0  0
    4.7632   13.5757  220.3685 C   0  0  0  0  0  0  0  0  0  0  0  0
    4.5952   14.7744  221.0029 O   0  0  0  0  0  0  0  0  0  0  0  0
    3.2943   15.2807  221.2222 C   0  0  0  0  0  0  0  0  0  0  0  0
  1  2  1  0
  1  6  2  0
 11  1  1  0
  2  3  2  0
 14  2  1  0
  3  5  1  0
  3 13  1  0
 11  4  1  0
  4 14  2  0
  4 15  1  0
 12  5  2  0
  6 12  1  0
  8  7  1  0
  9  8  1  0
 10  9  1  0
 10 11  1  0
 15 16  1  0
 16 17  2  0
 16 18  1  0
 17 25  1  0
 18 19  2  0
 19 20  1  0
 19 22  1  0
 20 21  1  0
 22 23  1  0
 22 25  2  0
 23 24  1  0
 25 26  1  0
 26 27  1  0
M  END
$$$$
