
     RDKit          3D

 27 29  0  0  0  0  0  0  0  0999 V2000
    0.7087    9.7038  220.4764 C   0  0  0  0  0  0  0  0  0  0  0  0
    0.4154   11.0261  220.6400 C   0  0  0  0  0  0  0  0  0  0  0  0
   -0.8604   11.4601  220.3545 C   0  0  0  0  0  0  0  0  0  0  0  0
    2.5365   10.7003  221.1888 C   0  0  0  0  0  0  0  0  0  0  0  0
   -1.7631   10.5595  219.9260 N   0  0  0  0  0  0  0  0  0  0  0  0
   -0.2277    8.8446  220.0455 N   0  0  0  0  0  0  0  0  0  0  0  0
    3.2669    7.6618  223.7553 C   0  0  0  0  0  0  0  0  0  0  0  0
    2.9367    6.6823  222.6548 C   0  0  0  0  0  0  0  0  0  0  0  0
    1.9279    7.2528  221.6905 C   0  0  0  0  0  0  0  0  0  0  0  0
    2.6566    8.2344  220.7848 C   0  0  0  0  0  0  0  0  0  0  0  0
    1.9985    9.5348  220.8164 N   0  0  0  0  0  0  0  0  0  0  0  0
   -1.4804    9.2573  219.7628 C   0  0  0  0  0  0  0  0  0  0  0  0
   -1.1640   12.8349  220.5255 N   0  0  0  0  0  0  0  0  0  0  0  0
    1.5458   11.6081  221.0740 N   0  0  0  0  0  0  0  0  0  0  0  0
    3.9156   10.8976  221.6068 C   0  0  0  0  0  0  0  0  0  0  0  0
    4.7718   11.6452  220.6683 C   0  0  0  0  0  0  0  0  0  0  0  0
    5.6262   11.0912  219.7521 C   0  0  0  0  0  0  0  0  0  0  0  0
    4.6687   13.0457  220.7589 C   0  0  0  0  0  0  0  0  0  0  0  0
    5.4063   13.8777  219.9485 C   0  0  0  0  0  0  0  0  0  0  0  0
    5.2856   15.2565  220.0576 O   0  0  0  0  0  0  0  0  0  0  0  0
    4.5862   15.9037  221.0813 C   0  0  0  0  0  0  0  0  0  0  0  0
    6.2585   13.3121  219.0350 C   0  0  0  0  0  0  0  0  0  0  0  0
    7.0017   14.1637  218.2188 O   0  0  0  0  0  0  0  0  0  0  0  0
    6.3753   14.9292  217.1967 C   0  0  0  0  0  0  0  0  0  0  0  0
    6.3632   11.9208  218.9424 C   0  0  0  0  0  0  0  0  0  0  0  0
    7.2288   11.4162  218.0132 O   0  0  0  0  0  0  0  0  0  0  0  0
    7.4664   10.0246  217.9520 C   0  0  0  0  0  0  0  0  0  0  0  0
  1  2  1  0
  1  6  2  0
 11  1  1  0
  2  3  2  0
 14  2  1  0
  3  5  1  0
  3 13  1  0
 11  4  1  0
  4 14  2  0
  4 15  1  0
 12  5  2  0
  6 12  1  0
  8  7  1  0
  9  8  1  0
 10  9  1  0
 10 11  1  0
 15 16  1  0
 16 17  2  0
 16 18  1  0
 17 25  1  0
 18 19  2  0
 19 20  1  0
 19 22  1  0
 20 21  1  0
 22 23  1  0
 22 25  2  0
 23 24  1  0
 25 26  1  0
 26 27  1  0
M  END
$$$$
