
     RDKit          3D

 27 29  0  0  0  0  0  0  0  0999 V2000
    1.0229   10.2278  221.2634 C   0  0  0  0  0  0  0  0  0  0  0  0
    0.2677   11.0666  220.4970 C   0  0  0  0  0  0  0  0  0  0  0  0
   -1.0321   11.3182  220.8772 C   0  0  0  0  0  0  0  0  0  0  0  0
    2.2811   10.9009  219.5885 C   0  0  0  0  0  0  0  0  0  0  0  0
   -1.5011   10.7248  221.9896 N   0  0  0  0  0  0  0  0  0  0  0  0
    0.5083    9.6598  222.3649 N   0  0  0  0  0  0  0  0  0  0  0  0
    5.0270    7.5552  219.6071 C   0  0  0  0  0  0  0  0  0  0  0  0
    4.3513    7.1588  220.8978 C   0  0  0  0  0  0  0  0  0  0  0  0
    3.0308    7.8657  221.0710 C   0  0  0  0  0  0  0  0  0  0  0  0
    3.3196    9.3484  221.2527 C   0  0  0  0  0  0  0  0  0  0  0  0
    2.2368   10.1463  220.6909 N   0  0  0  0  0  0  0  0  0  0  0  0
   -0.7631    9.8984  222.7475 C   0  0  0  0  0  0  0  0  0  0  0  0
   -1.8159   12.1907  220.0797 N   0  0  0  0  0  0  0  0  0  0  0  0
    1.0586   11.4608  219.4850 N   0  0  0  0  0  0  0  0  0  0  0  0
    3.4303   11.0414  218.7081 C   0  0  0  0  0  0  0  0  0  0  0  0
    4.5805   11.7771  219.2637 C   0  0  0  0  0  0  0  0  0  0  0  0
    5.8807   11.3461  219.2615 C   0  0  0  0  0  0  0  0  0  0  0  0
    4.2664   13.0240  219.8353 C   0  0  0  0  0  0  0  0  0  0  0  0
    5.2343   13.8259  220.3949 C   0  0  0  0  0  0  0  0  0  0  0  0
    4.8982   15.0523  220.9520 O   0  0  0  0  0  0  0  0  0  0  0  0
    3.6241   15.6244  220.8775 C   0  0  0  0  0  0  0  0  0  0  0  0
    6.5326   13.3843  220.3872 C   0  0  0  0  0  0  0  0  0  0  0  0
    7.5060   14.2040  220.9569 O   0  0  0  0  0  0  0  0  0  0  0  0
    7.8541   14.0809  222.3305 C   0  0  0  0  0  0  0  0  0  0  0  0
    6.8480   12.1458  219.8198 C   0  0  0  0  0  0  0  0  0  0  0  0
    8.1588   11.7601  219.8418 O   0  0  0  0  0  0  0  0  0  0  0  0
    8.5690   10.6124  219.1268 C   0  0  0  0  0  0  0  0  0  0  0  0
  1  2  1  0
  1  6  2  0
 11  1  1  0
  2  3  2  0
 14  2  1  0
  3  5  1  0
  3 13  1  0
 11  4  1  0
  4 14  2  0
  4 15  1  0
 12  5  2  0
  6 12  1  0
  8  7  1  0
  9  8  1  0
 10  9  1  0
 10 11  1  0
 15 16  1  0
 16 17  2  0
 16 18  1  0
 17 25  1  0
 18 19  2  0
 19 20  1  0
 19 22  1  0
 20 21  1  0
 22 23  1  0
 22 25  2  0
 23 24  1  0
 25 26  1  0
 26 27  1  0
M  END
$$$$
