
     RDKit          3D

 27 29  0  0  0  0  0  0  0  0999 V2000
    0.8473   10.4858  219.6949 C   0  0  0  0  0  0  0  0  0  0  0  0
    0.5378   10.8295  220.9784 C   0  0  0  0  0  0  0  0  0  0  0  0
   -0.7748   11.1083  221.2895 C   0  0  0  0  0  0  0  0  0  0  0  0
    2.7177   10.4565  220.8535 C   0  0  0  0  0  0  0  0  0  0  0  0
   -1.6959   11.0294  220.3124 N   0  0  0  0  0  0  0  0  0  0  0  0
   -0.1087   10.4215  218.7555 N   0  0  0  0  0  0  0  0  0  0  0  0
    2.9622    6.8570  220.2115 C   0  0  0  0  0  0  0  0  0  0  0  0
    3.6869    7.6736  219.1685 C   0  0  0  0  0  0  0  0  0  0  0  0
    2.7227    8.3520  218.2287 C   0  0  0  0  0  0  0  0  0  0  0  0
    2.8594    9.8540  218.4297 C   0  0  0  0  0  0  0  0  0  0  0  0
    2.1728   10.2649  219.6481 N   0  0  0  0  0  0  0  0  0  0  0  0
   -1.3975   10.6921  219.0477 C   0  0  0  0  0  0  0  0  0  0  0  0
   -1.0952   11.4650  222.6243 N   0  0  0  0  0  0  0  0  0  0  0  0
    1.6948   10.8037  221.6609 N   0  0  0  0  0  0  0  0  0  0  0  0
    4.1305   10.3217  221.1717 C   0  0  0  0  0  0  0  0  0  0  0  0
    5.0155   11.3665  220.6259 C   0  0  0  0  0  0  0  0  0  0  0  0
    6.0545   11.1595  219.7575 C   0  0  0  0  0  0  0  0  0  0  0  0
    4.7303   12.6731  221.0637 C   0  0  0  0  0  0  0  0  0  0  0  0
    5.4702   13.7535  220.6413 C   0  0  0  0  0  0  0  0  0  0  0  0
    5.1677   15.0328  221.0879 O   0  0  0  0  0  0  0  0  0  0  0  0
    4.2169   15.3145  222.0741 C   0  0  0  0  0  0  0  0  0  0  0  0
    6.5079   13.5345  219.7720 C   0  0  0  0  0  0  0  0  0  0  0  0
    7.2517   14.6357  219.3502 O   0  0  0  0  0  0  0  0  0  0  0  0
    6.6381   15.7059  218.6423 C   0  0  0  0  0  0  0  0  0  0  0  0
    6.7938   12.2373  219.3350 C   0  0  0  0  0  0  0  0  0  0  0  0
    7.8397   12.0822  218.4691 O   0  0  0  0  0  0  0  0  0  0  0  0
    8.4438   10.8145  218.3120 C   0  0  0  0  0  0  0  0  0  0  0  0
  1  2  1  0
  1  6  2  0
 11  1  1  0
  2  3  2  0
 14  2  1  0
  3  5  1  0
  3 13  1  0
 11  4  1  0
  4 14  2  0
  4 15  1  0
 12  5  2  0
  6 12  1  0
  8  7  1  0
  9  8  1  0
 10  9  1  0
 10 11  1  0
 15 16  1  0
 16 17  2  0
 16 18  1  0
 17 25  1  0
 18 19  2  0
 19 20  1  0
 19 22  1  0
 20 21  1  0
 22 23  1  0
 22 25  2  0
 23 24  1  0
 25 26  1  0
 26 27  1  0
M  END
$$$$
