
     RDKit          3D

 27 29  0  0  0  0  0  0  0  0999 V2000
    0.7102    9.9968  221.1268 C   0  0  0  0  0  0  0  0  0  0  0  0
   -0.0584   10.8630  220.4056 C   0  0  0  0  0  0  0  0  0  0  0  0
   -1.3738   11.0423  220.7730 C   0  0  0  0  0  0  0  0  0  0  0  0
    1.9778   10.8320  219.5340 C   0  0  0  0  0  0  0  0  0  0  0  0
   -1.8441   10.3542  221.8288 N   0  0  0  0  0  0  0  0  0  0  0  0
    0.1936    9.3332  222.1725 N   0  0  0  0  0  0  0  0  0  0  0  0
    5.2884    7.5306  221.6152 C   0  0  0  0  0  0  0  0  0  0  0  0
    4.0039    6.9520  221.0720 C   0  0  0  0  0  0  0  0  0  0  0  0
    3.2483    7.9615  220.2455 C   0  0  0  0  0  0  0  0  0  0  0  0
    3.0363    9.1986  221.1055 C   0  0  0  0  0  0  0  0  0  0  0  0
    1.9376    9.9982  220.5779 N   0  0  0  0  0  0  0  0  0  0  0  0
   -1.0930    9.5002  222.5421 C   0  0  0  0  0  0  0  0  0  0  0  0
   -2.1715   11.9435  220.0226 N   0  0  0  0  0  0  0  0  0  0  0  0
    0.7386   11.3563  219.4430 N   0  0  0  0  0  0  0  0  0  0  0  0
    3.1390   11.0748  218.6926 C   0  0  0  0  0  0  0  0  0  0  0  0
    4.2454   11.8184  219.3217 C   0  0  0  0  0  0  0  0  0  0  0  0
    4.1293   13.0077  219.9914 C   0  0  0  0  0  0  0  0  0  0  0  0
    5.5109   11.2159  219.1969 C   0  0  0  0  0  0  0  0  0  0  0  0
    6.6404   11.7916  219.7318 C   0  0  0  0  0  0  0  0  0  0  0  0
    7.8773   11.1763  219.5952 O   0  0  0  0  0  0  0  0  0  0  0  0
    8.0976   10.0170  218.8445 C   0  0  0  0  0  0  0  0  0  0  0  0
    6.5123   12.9822  220.4001 C   0  0  0  0  0  0  0  0  0  0  0  0
    7.6626   13.5576  220.9381 O   0  0  0  0  0  0  0  0  0  0  0  0
    8.1791   14.7792  220.4243 C   0  0  0  0  0  0  0  0  0  0  0  0
    5.2561   13.5834  220.5259 C   0  0  0  0  0  0  0  0  0  0  0  0
    5.1917   14.7688  221.2028 O   0  0  0  0  0  0  0  0  0  0  0  0
    3.9539   15.4359  221.3419 C   0  0  0  0  0  0  0  0  0  0  0  0
  1  2  1  0
  1  6  2  0
 11  1  1  0
  2  3  2  0
 14  2  1  0
  3  5  1  0
  3 13  1  0
 11  4  1  0
  4 14  2  0
  4 15  1  0
 12  5  2  0
  6 12  1  0
  8  7  1  0
  9  8  1  0
 10  9  1  0
 10 11  1  0
 15 16  1  0
 16 17  2  0
 16 18  1  0
 17 25  1  0
 18 19  2  0
 19 20  1  0
 19 22  1  0
 20 21  1  0
 22 23  1  0
 22 25  2  0
 23 24  1  0
 25 26  1  0
 26 27  1  0
M  END
$$$$
