
     RDKit          3D

 27 29  0  0  0  0  0  0  0  0999 V2000
    0.6620    9.8589  220.9541 C   0  0  0  0  0  0  0  0  0  0  0  0
   -0.0818   10.8415  220.3688 C   0  0  0  0  0  0  0  0  0  0  0  0
   -1.3826   11.0219  220.7846 C   0  0  0  0  0  0  0  0  0  0  0  0
    1.9370   10.8462  219.4571 C   0  0  0  0  0  0  0  0  0  0  0  0
   -1.8637   10.2198  221.7514 N   0  0  0  0  0  0  0  0  0  0  0  0
    0.1355    9.0843  221.9152 N   0  0  0  0  0  0  0  0  0  0  0  0
    4.6258    8.6402  224.1852 C   0  0  0  0  0  0  0  0  0  0  0  0
    4.4622    8.7209  222.6864 C   0  0  0  0  0  0  0  0  0  0  0  0
    3.0134    8.8656  222.2949 C   0  0  0  0  0  0  0  0  0  0  0  0
    2.9526    8.9809  220.7790 C   0  0  0  0  0  0  0  0  0  0  0  0
    1.8794    9.8848  220.3839 N   0  0  0  0  0  0  0  0  0  0  0  0
   -1.1369    9.2512  222.3309 C   0  0  0  0  0  0  0  0  0  0  0  0
   -2.1545   12.0439  220.1755 N   0  0  0  0  0  0  0  0  0  0  0  0
    0.7191   11.4255  219.4620 N   0  0  0  0  0  0  0  0  0  0  0  0
    3.0934   11.1521  218.6298 C   0  0  0  0  0  0  0  0  0  0  0  0
    4.1622   11.9312  219.2806 C   0  0  0  0  0  0  0  0  0  0  0  0
    3.9835   13.0720  220.0174 C   0  0  0  0  0  0  0  0  0  0  0  0
    5.4611   11.4205  219.1012 C   0  0  0  0  0  0  0  0  0  0  0  0
    6.5619   12.0388  219.6482 C   0  0  0  0  0  0  0  0  0  0  0  0
    7.8328   11.5142  219.4567 O   0  0  0  0  0  0  0  0  0  0  0  0
    8.0879   10.2761  218.8581 C   0  0  0  0  0  0  0  0  0  0  0  0
    6.3711   13.1803  220.3838 C   0  0  0  0  0  0  0  0  0  0  0  0
    7.4927   13.7996  220.9336 O   0  0  0  0  0  0  0  0  0  0  0  0
    7.4141   15.1154  221.4680 C   0  0  0  0  0  0  0  0  0  0  0  0
    5.0815   13.6903  220.5640 C   0  0  0  0  0  0  0  0  0  0  0  0
    4.9548   14.8304  221.3068 O   0  0  0  0  0  0  0  0  0  0  0  0
    3.6869   15.4344  221.4620 C   0  0  0  0  0  0  0  0  0  0  0  0
  1  2  1  0
  1  6  2  0
 11  1  1  0
  2  3  2  0
 14  2  1  0
  3  5  1  0
  3 13  1  0
 11  4  1  0
  4 14  2  0
  4 15  1  0
 12  5  2  0
  6 12  1  0
  8  7  1  0
  9  8  1  0
 10  9  1  0
 10 11  1  0
 15 16  1  0
 16 17  2  0
 16 18  1  0
 17 25  1  0
 18 19  2  0
 19 20  1  0
 19 22  1  0
 20 21  1  0
 22 23  1  0
 22 25  2  0
 23 24  1  0
 25 26  1  0
 26 27  1  0
M  END
$$$$
