
     RDKit          3D

 27 29  0  0  0  0  0  0  0  0999 V2000
    0.9052    9.9979  221.1125 C   0  0  0  0  0  0  0  0  0  0  0  0
    0.2244   10.9753  220.4472 C   0  0  0  0  0  0  0  0  0  0  0  0
   -1.0541   11.2851  220.8558 C   0  0  0  0  0  0  0  0  0  0  0  0
    2.2248   10.7535  219.5222 C   0  0  0  0  0  0  0  0  0  0  0  0
   -1.5766   10.6091  221.8948 N   0  0  0  0  0  0  0  0  0  0  0  0
    0.3392    9.3520  222.1436 N   0  0  0  0  0  0  0  0  0  0  0  0
    5.1875    8.2434  223.0099 C   0  0  0  0  0  0  0  0  0  0  0  0
    3.8686    8.9057  223.3285 C   0  0  0  0  0  0  0  0  0  0  0  0
    2.7786    8.4466  222.3933 C   0  0  0  0  0  0  0  0  0  0  0  0
    3.1250    8.9454  220.9982 C   0  0  0  0  0  0  0  0  0  0  0  0
    2.1128    9.8853  220.5323 N   0  0  0  0  0  0  0  0  0  0  0  0
   -0.9119    9.6464  222.5531 C   0  0  0  0  0  0  0  0  0  0  0  0
   -1.7605   12.3016  220.1635 N   0  0  0  0  0  0  0  0  0  0  0  0
    1.0513   11.4170  219.4849 N   0  0  0  0  0  0  0  0  0  0  0  0
    3.3878   10.9005  218.6612 C   0  0  0  0  0  0  0  0  0  0  0  0
    4.5569   11.5636  219.2665 C   0  0  0  0  0  0  0  0  0  0  0  0
    5.8330   11.0665  219.2912 C   0  0  0  0  0  0  0  0  0  0  0  0
    4.2897   12.8120  219.8583 C   0  0  0  0  0  0  0  0  0  0  0  0
    5.2801   13.5505  220.4640 C   0  0  0  0  0  0  0  0  0  0  0  0
    4.9902   14.7799  221.0401 O   0  0  0  0  0  0  0  0  0  0  0  0
    3.7835   15.4641  220.8621 C   0  0  0  0  0  0  0  0  0  0  0  0
    6.5539   13.0431  220.4827 C   0  0  0  0  0  0  0  0  0  0  0  0
    7.5503   13.7987  221.0991 O   0  0  0  0  0  0  0  0  0  0  0  0
    7.6487   13.8634  222.5166 C   0  0  0  0  0  0  0  0  0  0  0  0
    6.8227   11.8028  219.8955 C   0  0  0  0  0  0  0  0  0  0  0  0
    8.1110   11.3498  219.9456 O   0  0  0  0  0  0  0  0  0  0  0  0
    8.4983   10.2356  219.1676 C   0  0  0  0  0  0  0  0  0  0  0  0
  1  2  1  0
  1  6  2  0
 11  1  1  0
  2  3  2  0
 14  2  1  0
  3  5  1  0
  3 13  1  0
 11  4  1  0
  4 14  2  0
  4 15  1  0
 12  5  2  0
  6 12  1  0
  8  7  1  0
  9  8  1  0
 10  9  1  0
 10 11  1  0
 15 16  1  0
 16 17  2  0
 16 18  1  0
 17 25  1  0
 18 19  2  0
 19 20  1  0
 19 22  1  0
 20 21  1  0
 22 23  1  0
 22 25  2  0
 23 24  1  0
 25 26  1  0
 26 27  1  0
M  END
$$$$
