
     RDKit          3D

 27 29  0  0  0  0  0  0  0  0999 V2000
    0.6353   10.0568  221.2571 C   0  0  0  0  0  0  0  0  0  0  0  0
   -0.1011   10.7829  220.3674 C   0  0  0  0  0  0  0  0  0  0  0  0
   -1.4393   10.9831  220.6253 C   0  0  0  0  0  0  0  0  0  0  0  0
    1.9850   10.6702  219.6313 C   0  0  0  0  0  0  0  0  0  0  0  0
   -1.9627   10.4529  221.7453 N   0  0  0  0  0  0  0  0  0  0  0  0
    0.0660    9.5482  222.3607 N   0  0  0  0  0  0  0  0  0  0  0  0
    4.1525    7.4739  218.9683 C   0  0  0  0  0  0  0  0  0  0  0  0
    2.8270    7.7301  219.6444 C   0  0  0  0  0  0  0  0  0  0  0  0
    2.9814    7.8442  221.1398 C   0  0  0  0  0  0  0  0  0  0  0  0
    2.9708    9.3237  221.4950 C   0  0  0  0  0  0  0  0  0  0  0  0
    1.8940   10.0052  220.7872 N   0  0  0  0  0  0  0  0  0  0  0  0
   -1.2434    9.7374  222.6244 C   0  0  0  0  0  0  0  0  0  0  0  0
   -2.2036   11.7385  219.6996 N   0  0  0  0  0  0  0  0  0  0  0  0
    0.7456   11.1430  219.3884 N   0  0  0  0  0  0  0  0  0  0  0  0
    3.1918   10.8105  218.8316 C   0  0  0  0  0  0  0  0  0  0  0  0
    4.1850   11.7790  219.3301 C   0  0  0  0  0  0  0  0  0  0  0  0
    3.9039   13.0120  219.8564 C   0  0  0  0  0  0  0  0  0  0  0  0
    5.5240   11.3563  219.2361 C   0  0  0  0  0  0  0  0  0  0  0  0
    6.5635   12.1517  219.6604 C   0  0  0  0  0  0  0  0  0  0  0  0
    7.8759   11.7109  219.5571 O   0  0  0  0  0  0  0  0  0  0  0  0
    8.2795   10.6284  218.7688 C   0  0  0  0  0  0  0  0  0  0  0  0
    6.2703   13.3841  220.1855 C   0  0  0  0  0  0  0  0  0  0  0  0
    7.3305   14.1826  220.6122 O   0  0  0  0  0  0  0  0  0  0  0  0
    7.6998   15.3539  219.8946 C   0  0  0  0  0  0  0  0  0  0  0  0
    4.9408   13.8070  220.2803 C   0  0  0  0  0  0  0  0  0  0  0  0
    4.7115   15.0446  220.8125 O   0  0  0  0  0  0  0  0  0  0  0  0
    3.5402   15.2830  221.5661 C   0  0  0  0  0  0  0  0  0  0  0  0
  1  2  1  0
  1  6  2  0
 11  1  1  0
  2  3  2  0
 14  2  1  0
  3  5  1  0
  3 13  1  0
 11  4  1  0
  4 14  2  0
  4 15  1  0
 12  5  2  0
  6 12  1  0
  8  7  1  0
  9  8  1  0
 10  9  1  0
 10 11  1  0
 15 16  1  0
 16 17  2  0
 16 18  1  0
 17 25  1  0
 18 19  2  0
 19 20  1  0
 19 22  1  0
 20 21  1  0
 22 23  1  0
 22 25  2  0
 23 24  1  0
 25 26  1  0
 26 27  1  0
M  END
$$$$
