
     RDKit          3D

 27 29  0  0  0  0  0  0  0  0999 V2000
    0.3063    9.7271  221.1708 C   0  0  0  0  0  0  0  0  0  0  0  0
   -0.4296   10.6084  220.4340 C   0  0  0  0  0  0  0  0  0  0  0  0
   -1.7514   10.8061  220.7672 C   0  0  0  0  0  0  0  0  0  0  0  0
    1.6283   10.5503  219.6165 C   0  0  0  0  0  0  0  0  0  0  0  0
   -2.2600   10.1202  221.8066 N   0  0  0  0  0  0  0  0  0  0  0  0
   -0.2480    9.0665  222.1990 N   0  0  0  0  0  0  0  0  0  0  0  0
    4.8002    7.4132  220.2006 C   0  0  0  0  0  0  0  0  0  0  0  0
    3.3916    7.0495  219.7968 C   0  0  0  0  0  0  0  0  0  0  0  0
    2.3950    7.4286  220.8628 C   0  0  0  0  0  0  0  0  0  0  0  0
    2.6197    8.8935  221.2071 C   0  0  0  0  0  0  0  0  0  0  0  0
    1.5477    9.7123  220.6547 N   0  0  0  0  0  0  0  0  0  0  0  0
   -1.5412    9.2515  222.5352 C   0  0  0  0  0  0  0  0  0  0  0  0
   -2.5151   11.7229  220.0006 N   0  0  0  0  0  0  0  0  0  0  0  0
    0.4001   11.0939  219.4954 N   0  0  0  0  0  0  0  0  0  0  0  0
    2.8150   10.7792  218.8074 C   0  0  0  0  0  0  0  0  0  0  0  0
    3.8810   11.5771  219.4398 C   0  0  0  0  0  0  0  0  0  0  0  0
    5.1800   11.1789  219.6141 C   0  0  0  0  0  0  0  0  0  0  0  0
    3.4820   12.8500  219.8877 C   0  0  0  0  0  0  0  0  0  0  0  0
    4.3654   13.7098  220.4990 C   0  0  0  0  0  0  0  0  0  0  0  0
    3.9465   14.9607  220.9314 O   0  0  0  0  0  0  0  0  0  0  0  0
    2.6184   15.3979  220.8970 C   0  0  0  0  0  0  0  0  0  0  0  0
    5.6632   13.3006  220.6683 C   0  0  0  0  0  0  0  0  0  0  0  0
    6.5505   14.1788  221.2890 O   0  0  0  0  0  0  0  0  0  0  0  0
    6.5046   14.3940  222.6943 C   0  0  0  0  0  0  0  0  0  0  0  0
    6.0629   12.0363  220.2242 C   0  0  0  0  0  0  0  0  0  0  0  0
    7.3689   11.6851  220.4206 O   0  0  0  0  0  0  0  0  0  0  0  0
    8.0263   10.8584  219.4820 C   0  0  0  0  0  0  0  0  0  0  0  0
  1  2  1  0
  1  6  2  0
 11  1  1  0
  2  3  2  0
 14  2  1  0
  3  5  1  0
  3 13  1  0
 11  4  1  0
  4 14  2  0
  4 15  1  0
 12  5  2  0
  6 12  1  0
  8  7  1  0
  9  8  1  0
 10  9  1  0
 10 11  1  0
 15 16  1  0
 16 17  2  0
 16 18  1  0
 17 25  1  0
 18 19  2  0
 19 20  1  0
 19 22  1  0
 20 21  1  0
 22 23  1  0
 22 25  2  0
 23 24  1  0
 25 26  1  0
 26 27  1  0
M  END
$$$$
