
     RDKit          3D

 20 20  0  0  0  0  0  0  0  0999 V2000
    1.3590  -14.7957    9.5534 C   0  0  2  0  0  0  0  0  0  0  0  0
    1.9381  -15.3934    8.2445 C   0  0  0  0  0  0  0  0  0  0  0  0
    2.6483  -16.6813    8.5045 C   0  0  0  0  0  0  0  0  0  0  0  0
    3.9106  -16.3143    9.3162 C   0  0  0  0  0  0  0  0  0  0  0  0
    3.3595  -15.7762   10.5935 C   0  0  0  0  0  0  0  0  0  0  0  0
    2.2254  -15.1056   10.6747 C   0  0  0  0  0  0  0  0  0  0  0  0
    1.8419  -14.5610   12.0188 C   0  0  0  0  0  0  0  0  0  0  0  0
    0.9893  -15.1147   12.8025 C   0  0  0  0  0  0  0  0  0  0  0  0
    0.6161  -14.4478   14.0830 C   0  0  0  0  0  0  0  0  0  0  0  0
   -0.4694  -14.8364   14.5556 C   0  0  0  0  0  0  0  0  0  0  0  0
   -1.6889  -15.2347   15.0352 C   0  0  0  0  0  0  0  0  0  0  0  0
   -2.0139  -14.9455   16.3519 C   0  0  0  0  0  0  0  0  0  0  0  0
   -3.2467  -15.5303   16.8416 C   0  0  0  0  0  0  0  0  0  0  0  0
   -4.0367  -14.7987   17.6002 C   0  0  0  0  0  0  0  0  0  0  0  0
   -5.1913  -15.3553   18.3220 C   0  0  0  0  0  0  0  0  0  0  0  0
   -0.0582  -15.2834    9.6760 C   0  0  0  0  0  0  0  0  0  0  0  0
    1.3551  -13.2724    9.3100 C   0  0  0  0  0  0  0  0  0  0  0  0
    4.1157  -16.0265   11.8768 C   0  0  0  0  0  0  0  0  0  0  0  0
    1.5698  -13.4292   14.6349 C   0  0  0  0  0  0  0  0  0  0  0  0
   -3.6030  -16.9477   16.5150 C   0  0  0  0  0  0  0  0  0  0  0  0
  1  2  1  0
  1  6  1  0
  1 16  1  1
  1 17  1  0
  2  3  1  0
  3  4  1  0
  4  5  1  0
  5  6  2  0
  5 18  1  0
  6  7  1  0
  7  8  2  0
  8  9  1  0
  9 10  2  0
  9 19  1  0
 10 11  1  0
 11 12  2  0
 12 13  1  0
 13 14  2  0
 13 20  1  0
 14 15  1  0
M  END
$$$$
