
     RDKit          3D

 20 20  0  0  0  0  0  0  0  0999 V2000
    2.9272  -15.7849   10.0999 C   0  0  2  0  0  0  0  0  0  0  0  0
    2.5949  -15.9100    8.5899 C   0  0  0  0  0  0  0  0  0  0  0  0
    1.6402  -14.8470    8.1551 C   0  0  0  0  0  0  0  0  0  0  0  0
    0.2963  -15.1755    8.8428 C   0  0  0  0  0  0  0  0  0  0  0  0
    0.5995  -15.0170   10.2945 C   0  0  0  0  0  0  0  0  0  0  0  0
    1.7740  -15.2933   10.8299 C   0  0  0  0  0  0  0  0  0  0  0  0
    1.9019  -15.1569   12.3182 C   0  0  0  0  0  0  0  0  0  0  0  0
    1.7184  -16.1198   13.1471 C   0  0  0  0  0  0  0  0  0  0  0  0
    1.8375  -15.8702   14.6125 C   0  0  0  0  0  0  0  0  0  0  0  0
    0.7864  -16.0836   15.2468 C   0  0  0  0  0  0  0  0  0  0  0  0
   -0.3530  -16.3713   15.9501 C   0  0  0  0  0  0  0  0  0  0  0  0
   -0.8250  -15.4409   16.8638 C   0  0  0  0  0  0  0  0  0  0  0  0
   -2.1979  -15.0138   16.6788 C   0  0  0  0  0  0  0  0  0  0  0  0
   -3.1594  -15.9067   16.7928 C   0  0  0  0  0  0  0  0  0  0  0  0
   -4.5854  -15.5466   16.8189 C   0  0  0  0  0  0  0  0  0  0  0  0
    4.1708  -14.9473   10.2137 C   0  0  0  0  0  0  0  0  0  0  0  0
    3.2417  -17.2284   10.5438 C   0  0  0  0  0  0  0  0  0  0  0  0
   -0.4779  -14.4874   11.2111 C   0  0  0  0  0  0  0  0  0  0  0  0
    3.1711  -15.4173   15.1300 C   0  0  0  0  0  0  0  0  0  0  0  0
   -2.5163  -13.5909   16.3374 C   0  0  0  0  0  0  0  0  0  0  0  0
  1  2  1  0
  1  6  1  0
  1 16  1  6
  1 17  1  0
  2  3  1  0
  3  4  1  0
  4  5  1  0
  5  6  2  0
  5 18  1  0
  6  7  1  0
  7  8  2  0
  8  9  1  0
  9 10  2  0
  9 19  1  0
 10 11  1  0
 11 12  2  0
 12 13  1  0
 13 14  2  0
 13 20  1  0
 14 15  1  0
M  END
$$$$
