
     RDKit          3D

 20 20  0  0  0  0  0  0  0  0999 V2000
    3.4093  -15.9368   10.4981 C   0  0  2  0  0  0  0  0  0  0  0  0
    3.7103  -15.4415    9.0593 C   0  0  0  0  0  0  0  0  0  0  0  0
    3.2623  -14.0297    8.8672 C   0  0  0  0  0  0  0  0  0  0  0  0
    1.7185  -14.0634    8.9155 C   0  0  0  0  0  0  0  0  0  0  0  0
    1.4226  -14.5003   10.3105 C   0  0  0  0  0  0  0  0  0  0  0  0
    2.1872  -15.3321   10.9932 C   0  0  0  0  0  0  0  0  0  0  0  0
    1.7161  -15.7380   12.3583 C   0  0  0  0  0  0  0  0  0  0  0  0
    1.5274  -14.9177   13.3274 C   0  0  0  0  0  0  0  0  0  0  0  0
    1.0659  -15.4265   14.6510 C   0  0  0  0  0  0  0  0  0  0  0  0
    0.0471  -14.8539   15.0833 C   0  0  0  0  0  0  0  0  0  0  0  0
   -1.0985  -14.2741   15.5599 C   0  0  0  0  0  0  0  0  0  0  0  0
   -1.4361  -14.4618   16.8918 C   0  0  0  0  0  0  0  0  0  0  0  0
   -2.8287  -14.7680   17.1536 C   0  0  0  0  0  0  0  0  0  0  0  0
   -3.7542  -13.9566   16.6848 C   0  0  0  0  0  0  0  0  0  0  0  0
   -5.1150  -13.8911   17.2395 C   0  0  0  0  0  0  0  0  0  0  0  0
    4.6396  -15.6794   11.3236 C   0  0  0  0  0  0  0  0  0  0  0  0
    3.2066  -17.4583   10.3449 C   0  0  0  0  0  0  0  0  0  0  0  0
    0.1988  -13.9493   11.0033 C   0  0  0  0  0  0  0  0  0  0  0  0
    1.8542  -16.5396   15.2763 C   0  0  0  0  0  0  0  0  0  0  0  0
   -3.2080  -15.9683   17.9649 C   0  0  0  0  0  0  0  0  0  0  0  0
  1  2  1  0
  1  6  1  0
  1 16  1  1
  1 17  1  0
  2  3  1  0
  3  4  1  0
  4  5  1  0
  5  6  2  0
  5 18  1  0
  6  7  1  0
  7  8  2  0
  8  9  1  0
  9 10  2  0
  9 19  1  0
 10 11  1  0
 11 12  2  0
 12 13  1  0
 13 14  2  0
 13 20  1  0
 14 15  1  0
M  END
$$$$
