
     RDKit          3D

 20 20  0  0  0  0  0  0  0  0999 V2000
    3.8512   -4.9428   -3.7322 C   0  0  2  0  0  0  0  0  0  0  0  0
    4.7198   -4.1102   -2.7533 C   0  0  0  0  0  0  0  0  0  0  0  0
    5.0154   -2.7557   -3.3088 C   0  0  0  0  0  0  0  0  0  0  0  0
    5.9574   -2.9858   -4.5115 C   0  0  0  0  0  0  0  0  0  0  0  0
    5.1135   -3.7517   -5.4738 C   0  0  0  0  0  0  0  0  0  0  0  0
    4.1850   -4.6145   -5.1051 C   0  0  0  0  0  0  0  0  0  0  0  0
    3.4720   -5.3650   -6.1908 C   0  0  0  0  0  0  0  0  0  0  0  0
    2.4337   -4.9269   -6.8054 C   0  0  0  0  0  0  0  0  0  0  0  0
    1.8539   -5.7104   -7.9340 C   0  0  0  0  0  0  0  0  0  0  0  0
    1.4048   -5.0055   -8.8581 C   0  0  0  0  0  0  0  0  0  0  0  0
    0.9257   -4.1852   -9.8447 C   0  0  0  0  0  0  0  0  0  0  0  0
   -0.1414   -4.6223  -10.6150 C   0  0  0  0  0  0  0  0  0  0  0  0
   -0.7359   -3.6319  -11.4910 C   0  0  0  0  0  0  0  0  0  0  0  0
    0.0495   -2.7507  -12.0752 C   0  0  0  0  0  0  0  0  0  0  0  0
   -0.4401   -1.7710  -13.0573 C   0  0  0  0  0  0  0  0  0  0  0  0
    2.4141   -4.7265   -3.3458 C   0  0  0  0  0  0  0  0  0  0  0  0
    4.2429   -6.4063   -3.4419 C   0  0  0  0  0  0  0  0  0  0  0  0
    5.3017   -3.5191   -6.9543 C   0  0  0  0  0  0  0  0  0  0  0  0
    1.8913   -7.2067   -7.8272 C   0  0  0  0  0  0  0  0  0  0  0  0
   -2.2173   -3.5931  -11.7067 C   0  0  0  0  0  0  0  0  0  0  0  0
  1  2  1  0
  1  6  1  0
  1 16  1  1
  1 17  1  0
  2  3  1  0
  3  4  1  0
  4  5  1  0
  5  6  2  0
  5 18  1  0
  6  7  1  0
  7  8  2  0
  8  9  1  0
  9 10  2  0
  9 19  1  0
 10 11  1  0
 11 12  2  0
 12 13  1  0
 13 14  2  0
 13 20  1  0
 14 15  1  0
M  END
$$$$
