
     RDKit          3D

 20 20  0  0  0  0  0  0  0  0999 V2000
    4.7451   -5.4722   -3.8939 C   0  0  2  0  0  0  0  0  0  0  0  0
    5.9508   -4.7796   -3.2065 C   0  0  0  0  0  0  0  0  0  0  0  0
    5.6673   -3.3378   -2.9388 C   0  0  0  0  0  0  0  0  0  0  0  0
    5.6057   -2.6528   -4.3222 C   0  0  0  0  0  0  0  0  0  0  0  0
    4.4226   -3.2864   -4.9728 C   0  0  0  0  0  0  0  0  0  0  0  0
    4.0597   -4.5389   -4.7677 C   0  0  0  0  0  0  0  0  0  0  0  0
    2.8918   -5.0555   -5.5547 C   0  0  0  0  0  0  0  0  0  0  0  0
    2.6262   -4.7058   -6.7609 C   0  0  0  0  0  0  0  0  0  0  0  0
    1.4538   -5.3004   -7.4648 C   0  0  0  0  0  0  0  0  0  0  0  0
    1.1594   -4.7231   -8.5291 C   0  0  0  0  0  0  0  0  0  0  0  0
    0.8703   -4.1234   -9.7260 C   0  0  0  0  0  0  0  0  0  0  0  0
    0.3024   -4.8876  -10.7343 C   0  0  0  0  0  0  0  0  0  0  0  0
   -0.1505   -4.1574  -11.9019 C   0  0  0  0  0  0  0  0  0  0  0  0
   -0.7024   -4.8272  -12.8926 C   0  0  0  0  0  0  0  0  0  0  0  0
   -1.1674   -4.1837  -14.1310 C   0  0  0  0  0  0  0  0  0  0  0  0
    3.9023   -6.0800   -2.8070 C   0  0  0  0  0  0  0  0  0  0  0  0
    5.3796   -6.5974   -4.7372 C   0  0  0  0  0  0  0  0  0  0  0  0
    3.5675   -2.4551   -5.8996 C   0  0  0  0  0  0  0  0  0  0  0  0
    0.7986   -6.4920   -6.8305 C   0  0  0  0  0  0  0  0  0  0  0  0
    0.0303   -2.6736  -11.9931 C   0  0  0  0  0  0  0  0  0  0  0  0
  1  2  1  0
  1  6  1  0
  1 16  1  1
  1 17  1  0
  2  3  1  0
  3  4  1  0
  4  5  1  0
  5  6  2  0
  5 18  1  0
  6  7  1  0
  7  8  2  0
  8  9  1  0
  9 10  2  0
  9 19  1  0
 10 11  1  0
 11 12  2  0
 12 13  1  0
 13 14  2  0
 13 20  1  0
 14 15  1  0
M  END
$$$$
