
     RDKit          3D

 20 20  0  0  0  0  0  0  0  0999 V2000
    2.2772   -3.6896  -10.0902 C   0  0  2  0  0  0  0  0  0  0  0  0
    2.5782   -2.6752  -11.2244 C   0  0  0  0  0  0  0  0  0  0  0  0
    4.0081   -2.7461  -11.6497 C   0  0  0  0  0  0  0  0  0  0  0  0
    4.8326   -2.2044  -10.4608 C   0  0  0  0  0  0  0  0  0  0  0  0
    4.5790   -3.1990   -9.3786 C   0  0  0  0  0  0  0  0  0  0  0  0
    3.4376   -3.8459   -9.2338 C   0  0  0  0  0  0  0  0  0  0  0  0
    3.3079   -4.7578   -8.0498 C   0  0  0  0  0  0  0  0  0  0  0  0
    2.7314   -4.4313   -6.9503 C   0  0  0  0  0  0  0  0  0  0  0  0
    2.7292   -5.3832   -5.8025 C   0  0  0  0  0  0  0  0  0  0  0  0
    1.5969   -5.5991   -5.3294 C   0  0  0  0  0  0  0  0  0  0  0  0
    0.3394   -5.8645   -4.8560 C   0  0  0  0  0  0  0  0  0  0  0  0
   -0.2049   -7.1205   -5.0781 C   0  0  0  0  0  0  0  0  0  0  0  0
   -1.5372   -7.3346   -4.5482 C   0  0  0  0  0  0  0  0  0  0  0  0
   -1.9797   -8.5693   -4.4280 C   0  0  0  0  0  0  0  0  0  0  0  0
   -3.1689   -9.0646   -5.1381 C   0  0  0  0  0  0  0  0  0  0  0  0
    1.7787   -4.9500  -10.7415 C   0  0  0  0  0  0  0  0  0  0  0  0
    1.1293   -3.0402   -9.2901 C   0  0  0  0  0  0  0  0  0  0  0  0
    5.6880   -3.5135   -8.4026 C   0  0  0  0  0  0  0  0  0  0  0  0
    4.0495   -5.9559   -5.3776 C   0  0  0  0  0  0  0  0  0  0  0  0
   -2.4051   -6.1742   -4.1704 C   0  0  0  0  0  0  0  0  0  0  0  0
  1  2  1  0
  1  6  1  0
  1 16  1  6
  1 17  1  0
  2  3  1  0
  3  4  1  0
  4  5  1  0
  5  6  2  0
  5 18  1  0
  6  7  1  0
  7  8  2  0
  8  9  1  0
  9 10  2  0
  9 19  1  0
 10 11  1  0
 11 12  2  0
 12 13  1  0
 13 14  2  0
 13 20  1  0
 14 15  1  0
M  END
$$$$
