
     RDKit          3D

 20 20  0  0  0  0  0  0  0  0999 V2000
    0.8517   -3.7492  -11.0083 C   0  0  2  0  0  0  0  0  0  0  0  0
    1.2399   -2.7409  -12.1211 C   0  0  0  0  0  0  0  0  0  0  0  0
    2.7017   -2.8012  -12.4214 C   0  0  0  0  0  0  0  0  0  0  0  0
    3.4159   -2.2422  -11.1707 C   0  0  0  0  0  0  0  0  0  0  0  0
    3.0793   -3.2307  -10.1058 C   0  0  0  0  0  0  0  0  0  0  0  0
    1.9355   -3.8875  -10.0540 C   0  0  0  0  0  0  0  0  0  0  0  0
    1.7127   -4.7913   -8.8777 C   0  0  0  0  0  0  0  0  0  0  0  0
    2.6456   -5.1937   -8.0930 C   0  0  0  0  0  0  0  0  0  0  0  0
    2.2996   -5.9538   -6.8576 C   0  0  0  0  0  0  0  0  0  0  0  0
    3.1716   -5.8953   -5.9695 C   0  0  0  0  0  0  0  0  0  0  0  0
    4.1094   -5.8780   -4.9714 C   0  0  0  0  0  0  0  0  0  0  0  0
    3.7290   -6.2576   -3.6930 C   0  0  0  0  0  0  0  0  0  0  0  0
    4.8100   -6.5605   -2.7758 C   0  0  0  0  0  0  0  0  0  0  0  0
    4.9343   -5.8362   -1.6827 C   0  0  0  0  0  0  0  0  0  0  0  0
    5.6810   -6.2944   -0.5011 C   0  0  0  0  0  0  0  0  0  0  0  0
    0.4224   -5.0195  -11.6891 C   0  0  0  0  0  0  0  0  0  0  0  0
   -0.3666   -3.1048  -10.3154 C   0  0  0  0  0  0  0  0  0  0  0  0
    4.1030   -3.5268   -9.0355 C   0  0  0  0  0  0  0  0  0  0  0  0
    0.9788   -6.6655   -6.8315 C   0  0  0  0  0  0  0  0  0  0  0  0
    5.7838   -7.6573   -3.0775 C   0  0  0  0  0  0  0  0  0  0  0  0
  1  2  1  0
  1  6  1  0
  1 16  1  6
  1 17  1  0
  2  3  1  0
  3  4  1  0
  4  5  1  0
  5  6  2  0
  5 18  1  0
  6  7  1  0
  7  8  2  0
  8  9  1  0
  9 10  2  0
  9 19  1  0
 10 11  1  0
 11 12  2  0
 12 13  1  0
 13 14  2  0
 13 20  1  0
 14 15  1  0
M  END
$$$$
