
     RDKit          3D

 20 20  0  0  0  0  0  0  0  0999 V2000
   -1.3869   -2.4300  -12.5040 C   0  0  2  0  0  0  0  0  0  0  0  0
   -1.9239   -1.0187  -12.8587 C   0  0  0  0  0  0  0  0  0  0  0  0
   -0.8600   -0.1742  -13.4797 C   0  0  0  0  0  0  0  0  0  0  0  0
    0.1666    0.1075  -12.3601 C   0  0  0  0  0  0  0  0  0  0  0  0
    0.7160   -1.2424  -12.0431 C   0  0  0  0  0  0  0  0  0  0  0  0
    0.0082   -2.3543  -12.1141 C   0  0  0  0  0  0  0  0  0  0  0  0
    0.6795   -3.6266  -11.6889 C   0  0  0  0  0  0  0  0  0  0  0  0
    0.7728   -4.0179  -10.4699 C   0  0  0  0  0  0  0  0  0  0  0  0
    1.3070   -5.3765  -10.1655 C   0  0  0  0  0  0  0  0  0  0  0  0
    2.1731   -5.3880   -9.2698 C   0  0  0  0  0  0  0  0  0  0  0  0
    3.1038   -5.3528   -8.2656 C   0  0  0  0  0  0  0  0  0  0  0  0
    2.8085   -4.6492   -7.1077 C   0  0  0  0  0  0  0  0  0  0  0  0
    3.8258   -4.6759   -6.0752 C   0  0  0  0  0  0  0  0  0  0  0  0
    3.5782   -5.3308   -4.9596 C   0  0  0  0  0  0  0  0  0  0  0  0
    4.3431   -5.1177   -3.7213 C   0  0  0  0  0  0  0  0  0  0  0  0
   -1.6844   -3.3261  -13.6744 C   0  0  0  0  0  0  0  0  0  0  0  0
   -2.2373   -2.8707  -11.2948 C   0  0  0  0  0  0  0  0  0  0  0  0
    2.1673   -1.3634  -11.6425 C   0  0  0  0  0  0  0  0  0  0  0  0
    0.7453   -6.5300  -10.9437 C   0  0  0  0  0  0  0  0  0  0  0  0
    5.1225   -3.9503   -6.2607 C   0  0  0  0  0  0  0  0  0  0  0  0
  1  2  1  0
  1  6  1  0
  1 16  1  6
  1 17  1  0
  2  3  1  0
  3  4  1  0
  4  5  1  0
  5  6  2  0
  5 18  1  0
  6  7  1  0
  7  8  2  0
  8  9  1  0
  9 10  2  0
  9 19  1  0
 10 11  1  0
 11 12  2  0
 12 13  1  0
 13 14  2  0
 13 20  1  0
 14 15  1  0
M  END
$$$$
