
     RDKit          3D

 20 20  0  0  0  0  0  0  0  0999 V2000
    3.2249   -5.0259   -4.5045 C   0  0  2  0  0  0  0  0  0  0  0  0
    4.6081   -4.7281   -3.8689 C   0  0  0  0  0  0  0  0  0  0  0  0
    5.2792   -3.5781   -4.5454 C   0  0  0  0  0  0  0  0  0  0  0  0
    5.6393   -4.0711   -5.9646 C   0  0  0  0  0  0  0  0  0  0  0  0
    4.3107   -4.3205   -6.5947 C   0  0  0  0  0  0  0  0  0  0  0  0
    3.2535   -4.7438   -5.9272 C   0  0  0  0  0  0  0  0  0  0  0  0
    2.0078   -5.0230   -6.7148 C   0  0  0  0  0  0  0  0  0  0  0  0
    1.9625   -5.0679   -7.9969 C   0  0  0  0  0  0  0  0  0  0  0  0
    0.7101   -5.5018   -8.6803 C   0  0  0  0  0  0  0  0  0  0  0  0
    0.3960   -4.7914   -9.6547 C   0  0  0  0  0  0  0  0  0  0  0  0
    0.0509   -4.0565  -10.7576 C   0  0  0  0  0  0  0  0  0  0  0  0
   -1.0063   -4.4902  -11.5433 C   0  0  0  0  0  0  0  0  0  0  0  0
   -1.5338   -3.5213  -12.4839 C   0  0  0  0  0  0  0  0  0  0  0  0
   -2.3266   -2.5702  -12.0350 C   0  0  0  0  0  0  0  0  0  0  0  0
   -3.2817   -1.8541  -12.8945 C   0  0  0  0  0  0  0  0  0  0  0  0
    2.1984   -4.2629   -3.7137 C   0  0  0  0  0  0  0  0  0  0  0  0
    3.0190   -6.5385   -4.2826 C   0  0  0  0  0  0  0  0  0  0  0  0
    4.1425   -4.0539   -8.0719 C   0  0  0  0  0  0  0  0  0  0  0  0
    0.0085   -6.7107   -8.1346 C   0  0  0  0  0  0  0  0  0  0  0  0
   -1.2068   -3.6153  -13.9422 C   0  0  0  0  0  0  0  0  0  0  0  0
  1  2  1  0
  1  6  1  0
  1 16  1  1
  1 17  1  0
  2  3  1  0
  3  4  1  0
  4  5  1  0
  5  6  2  0
  5 18  1  0
  6  7  1  0
  7  8  2  0
  8  9  1  0
  9 10  2  0
  9 19  1  0
 10 11  1  0
 11 12  2  0
 12 13  1  0
 13 14  2  0
 13 20  1  0
 14 15  1  0
M  END
$$$$
