
     RDKit          3D

 20 20  0  0  0  0  0  0  0  0999 V2000
    1.3296  -14.5270   10.2204 C   0  0  2  0  0  0  0  0  0  0  0  0
    0.0218  -15.0896   10.8360 C   0  0  0  0  0  0  0  0  0  0  0  0
    0.2968  -16.2736   11.7038 C   0  0  0  0  0  0  0  0  0  0  0  0
    0.7550  -17.4010   10.7521 C   0  0  0  0  0  0  0  0  0  0  0  0
    2.0344  -16.8823   10.1875 C   0  0  0  0  0  0  0  0  0  0  0  0
    2.2670  -15.6030    9.9602 C   0  0  0  0  0  0  0  0  0  0  0  0
    3.5735  -15.2442    9.3164 C   0  0  0  0  0  0  0  0  0  0  0  0
    3.7735  -15.2408    8.0484 C   0  0  0  0  0  0  0  0  0  0  0  0
    5.1055  -14.8434    7.5083 C   0  0  0  0  0  0  0  0  0  0  0  0
    5.1393  -14.7557    6.2658 C   0  0  0  0  0  0  0  0  0  0  0  0
    5.1435  -14.7042    4.8972 C   0  0  0  0  0  0  0  0  0  0  0  0
    6.0090  -15.5351    4.2017 C   0  0  0  0  0  0  0  0  0  0  0  0
    5.9388  -15.4530    2.7561 C   0  0  0  0  0  0  0  0  0  0  0  0
    5.6784  -14.2876    2.2003 C   0  0  0  0  0  0  0  0  0  0  0  0
    6.2836  -13.8544    0.9314 C   0  0  0  0  0  0  0  0  0  0  0  0
    1.8247  -13.4452   11.1401 C   0  0  0  0  0  0  0  0  0  0  0  0
    0.8841  -13.8968    8.8847 C   0  0  0  0  0  0  0  0  0  0  0  0
    3.1440  -17.8591    9.8779 C   0  0  0  0  0  0  0  0  0  0  0  0
    6.2057  -14.5944    8.4977 C   0  0  0  0  0  0  0  0  0  0  0  0
    6.1310  -16.6741    1.9108 C   0  0  0  0  0  0  0  0  0  0  0  0
  1  2  1  0
  1  6  1  0
  1 16  1  1
  1 17  1  0
  2  3  1  0
  3  4  1  0
  4  5  1  0
  5  6  2  0
  5 18  1  0
  6  7  1  0
  7  8  2  0
  8  9  1  0
  9 10  2  0
  9 19  1  0
 10 11  1  0
 11 12  2  0
 12 13  1  0
 13 14  2  0
 13 20  1  0
 14 15  1  0
M  END
$$$$
