
     RDKit          3D

 20 20  0  0  0  0  0  0  0  0999 V2000
    5.1107  -18.8432    7.0949 C   0  0  2  0  0  0  0  0  0  0  0  0
    4.2731  -19.0357    8.3861 C   0  0  0  0  0  0  0  0  0  0  0  0
    3.2390  -17.9671    8.5257 C   0  0  0  0  0  0  0  0  0  0  0  0
    4.0139  -16.6584    8.7969 C   0  0  0  0  0  0  0  0  0  0  0  0
    4.7908  -16.4466    7.5415 C   0  0  0  0  0  0  0  0  0  0  0  0
    5.2674  -17.4310    6.8025 C   0  0  0  0  0  0  0  0  0  0  0  0
    6.0958  -17.0577    5.6089 C   0  0  0  0  0  0  0  0  0  0  0  0
    5.6400  -16.4335    4.5839 C   0  0  0  0  0  0  0  0  0  0  0  0
    6.5152  -16.2199    3.3956 C   0  0  0  0  0  0  0  0  0  0  0  0
    6.4805  -15.0580    2.9469 C   0  0  0  0  0  0  0  0  0  0  0  0
    6.4916  -13.7902    2.4289 C   0  0  0  0  0  0  0  0  0  0  0  0
    5.9738  -13.5847    1.1589 C   0  0  0  0  0  0  0  0  0  0  0  0
    6.1268  -12.2464    0.6230 C   0  0  0  0  0  0  0  0  0  0  0  0
    5.5731  -11.2396    1.2669 C   0  0  0  0  0  0  0  0  0  0  0  0
    4.1813  -10.8180    1.0453 C   0  0  0  0  0  0  0  0  0  0  0  0
    4.4565  -19.6594    6.0146 C   0  0  0  0  0  0  0  0  0  0  0  0
    6.4853  -19.4551    7.4352 C   0  0  0  0  0  0  0  0  0  0  0  0
    5.0315  -15.0346    7.0622 C   0  0  0  0  0  0  0  0  0  0  0  0
    7.3150  -17.3918    2.9070 C   0  0  0  0  0  0  0  0  0  0  0  0
    6.8760  -12.0150   -0.6527 C   0  0  0  0  0  0  0  0  0  0  0  0
  1  2  1  0
  1  6  1  0
  1 16  1  6
  1 17  1  0
  2  3  1  0
  3  4  1  0
  4  5  1  0
  5  6  2  0
  5 18  1  0
  6  7  1  0
  7  8  2  0
  8  9  1  0
  9 10  2  0
  9 19  1  0
 10 11  1  0
 11 12  2  0
 12 13  1  0
 13 14  2  0
 13 20  1  0
 14 15  1  0
M  END
$$$$
