
     RDKit          3D

 20 20  0  0  0  0  0  0  0  0999 V2000
    6.1552   -3.1139    1.4990 C   0  0  2  0  0  0  0  0  0  0  0  0
    7.0393   -3.1230    2.7734 C   0  0  0  0  0  0  0  0  0  0  0  0
    8.0862   -2.0594    2.7145 C   0  0  0  0  0  0  0  0  0  0  0  0
    9.0658   -2.4886    1.5996 C   0  0  0  0  0  0  0  0  0  0  0  0
    8.2307   -2.4424    0.3647 C   0  0  0  0  0  0  0  0  0  0  0  0
    6.9412   -2.7237    0.3439 C   0  0  0  0  0  0  0  0  0  0  0  0
    6.2541   -2.7083   -0.9894 C   0  0  0  0  0  0  0  0  0  0  0  0
    6.1002   -3.7446   -1.7312 C   0  0  0  0  0  0  0  0  0  0  0  0
    5.4084   -3.6196   -3.0463 C   0  0  0  0  0  0  0  0  0  0  0  0
    4.9193   -4.6878   -3.4616 C   0  0  0  0  0  0  0  0  0  0  0  0
    4.4237   -5.8655   -3.9548 C   0  0  0  0  0  0  0  0  0  0  0  0
    3.0735   -5.9440   -4.2611 C   0  0  0  0  0  0  0  0  0  0  0  0
    2.7342   -5.8005   -5.6632 C   0  0  0  0  0  0  0  0  0  0  0  0
    1.5561   -5.3052   -5.9818 C   0  0  0  0  0  0  0  0  0  0  0  0
    0.3440   -6.1320   -6.0884 C   0  0  0  0  0  0  0  0  0  0  0  0
    4.9611   -2.2481    1.7922 C   0  0  0  0  0  0  0  0  0  0  0  0
    5.6970   -4.5783    1.3402 C   0  0  0  0  0  0  0  0  0  0  0  0
    8.8754   -2.0275   -0.9367 C   0  0  0  0  0  0  0  0  0  0  0  0
    5.3768   -2.2618   -3.6840 C   0  0  0  0  0  0  0  0  0  0  0  0
    3.6927   -6.2323   -6.7297 C   0  0  0  0  0  0  0  0  0  0  0  0
  1  2  1  0
  1  6  1  0
  1 16  1  1
  1 17  1  0
  2  3  1  0
  3  4  1  0
  4  5  1  0
  5  6  2  0
  5 18  1  0
  6  7  1  0
  7  8  2  0
  8  9  1  0
  9 10  2  0
  9 19  1  0
 10 11  1  0
 11 12  2  0
 12 13  1  0
 13 14  2  0
 13 20  1  0
 14 15  1  0
M  END
$$$$
