
     RDKit          3D

 20 20  0  0  0  0  0  0  0  0999 V2000
   -1.9608   -2.3044  -13.0553 C   0  0  2  0  0  0  0  0  0  0  0  0
   -3.1926   -2.8324  -13.8362 C   0  0  0  0  0  0  0  0  0  0  0  0
   -3.9437   -3.8491  -13.0406 C   0  0  0  0  0  0  0  0  0  0  0  0
   -3.0219   -5.0858  -12.9530 C   0  0  0  0  0  0  0  0  0  0  0  0
   -1.8530   -4.5947  -12.1675 C   0  0  0  0  0  0  0  0  0  0  0  0
   -1.4001   -3.3563  -12.2287 C   0  0  0  0  0  0  0  0  0  0  0  0
   -0.1672   -3.0338  -11.4374 C   0  0  0  0  0  0  0  0  0  0  0  0
    0.9455   -3.6638  -11.5509 C   0  0  0  0  0  0  0  0  0  0  0  0
    2.1677   -3.1385  -10.8770 C   0  0  0  0  0  0  0  0  0  0  0  0
    2.5539   -3.8358   -9.9194 C   0  0  0  0  0  0  0  0  0  0  0  0
    2.9309   -4.5898   -8.8399 C   0  0  0  0  0  0  0  0  0  0  0  0
    3.2663   -3.9431   -7.6599 C   0  0  0  0  0  0  0  0  0  0  0  0
    3.4702   -4.7978   -6.5068 C   0  0  0  0  0  0  0  0  0  0  0  0
    2.4657   -5.5349   -6.0798 C   0  0  0  0  0  0  0  0  0  0  0  0
    2.5583   -6.4031   -4.8959 C   0  0  0  0  0  0  0  0  0  0  0  0
   -2.3968   -1.0667  -12.3208 C   0  0  0  0  0  0  0  0  0  0  0  0
   -0.9489   -1.9164  -14.1531 C   0  0  0  0  0  0  0  0  0  0  0  0
   -1.1547   -5.5473  -11.2261 C   0  0  0  0  0  0  0  0  0  0  0  0
    2.7712   -1.8787  -11.4250 C   0  0  0  0  0  0  0  0  0  0  0  0
    4.7886   -4.8222   -5.7971 C   0  0  0  0  0  0  0  0  0  0  0  0
  1  2  1  0
  1  6  1  0
  1 16  1  1
  1 17  1  0
  2  3  1  0
  3  4  1  0
  4  5  1  0
  5  6  2  0
  5 18  1  0
  6  7  1  0
  7  8  2  0
  8  9  1  0
  9 10  2  0
  9 19  1  0
 10 11  1  0
 11 12  2  0
 12 13  1  0
 13 14  2  0
 13 20  1  0
 14 15  1  0
M  END
$$$$
