
     RDKit          3D

 20 20  0  0  0  0  0  0  0  0999 V2000
    4.0015   -4.1383   -5.6281 C   0  0  2  0  0  0  0  0  0  0  0  0
    3.9117   -3.7206   -4.1370 C   0  0  0  0  0  0  0  0  0  0  0  0
    2.8260   -4.4640   -3.4303 C   0  0  0  0  0  0  0  0  0  0  0  0
    1.4982   -3.9444   -4.0252 C   0  0  0  0  0  0  0  0  0  0  0  0
    1.5610   -4.3792   -5.4506 C   0  0  0  0  0  0  0  0  0  0  0  0
    2.6829   -4.4578   -6.1416 C   0  0  0  0  0  0  0  0  0  0  0  0
    2.5754   -4.8369   -7.5890 C   0  0  0  0  0  0  0  0  0  0  0  0
    2.1366   -4.0541   -8.5068 C   0  0  0  0  0  0  0  0  0  0  0  0
    2.1734   -4.4887   -9.9328 C   0  0  0  0  0  0  0  0  0  0  0  0
    1.1054   -4.2970  -10.5454 C   0  0  0  0  0  0  0  0  0  0  0  0
   -0.0637   -4.1375  -11.2409 C   0  0  0  0  0  0  0  0  0  0  0  0
   -0.9056   -3.0903  -10.8979 C   0  0  0  0  0  0  0  0  0  0  0  0
   -2.0706   -2.9135  -11.7423 C   0  0  0  0  0  0  0  0  0  0  0  0
   -3.1683   -3.5820  -11.4543 C   0  0  0  0  0  0  0  0  0  0  0  0
   -4.4461   -3.3568  -12.1474 C   0  0  0  0  0  0  0  0  0  0  0  0
    5.0173   -5.2433   -5.7201 C   0  0  0  0  0  0  0  0  0  0  0  0
    4.5445   -2.8850   -6.3450 C   0  0  0  0  0  0  0  0  0  0  0  0
    0.2824   -4.7797   -6.1479 C   0  0  0  0  0  0  0  0  0  0  0  0
    3.4566   -5.0755  -10.4433 C   0  0  0  0  0  0  0  0  0  0  0  0
   -2.0199   -2.0099  -12.9353 C   0  0  0  0  0  0  0  0  0  0  0  0
  1  2  1  0
  1  6  1  0
  1 16  1  1
  1 17  1  0
  2  3  1  0
  3  4  1  0
  4  5  1  0
  5  6  2  0
  5 18  1  0
  6  7  1  0
  7  8  2  0
  8  9  1  0
  9 10  2  0
  9 19  1  0
 10 11  1  0
 11 12  2  0
 12 13  1  0
 13 14  2  0
 13 20  1  0
 14 15  1  0
M  END
$$$$
