
     RDKit          3D

 20 20  0  0  0  0  0  0  0  0999 V2000
    0.3478   -4.5929   -9.8143 C   0  0  2  0  0  0  0  0  0  0  0  0
   -0.5039   -4.6150  -11.1105 C   0  0  0  0  0  0  0  0  0  0  0  0
    0.3471   -4.8553  -12.3142 C   0  0  0  0  0  0  0  0  0  0  0  0
    1.2149   -3.5880  -12.4810 C   0  0  0  0  0  0  0  0  0  0  0  0
    2.0652   -3.5838  -11.2557 C   0  0  0  0  0  0  0  0  0  0  0  0
    1.6595   -4.0350  -10.0834 C   0  0  0  0  0  0  0  0  0  0  0  0
    2.6031   -3.8921   -8.9261 C   0  0  0  0  0  0  0  0  0  0  0  0
    3.5612   -4.7085   -8.6743 C   0  0  0  0  0  0  0  0  0  0  0  0
    4.5017   -4.4254   -7.5522 C   0  0  0  0  0  0  0  0  0  0  0  0
    4.1461   -4.9126   -6.4619 C   0  0  0  0  0  0  0  0  0  0  0  0
    3.7219   -5.4833   -5.2914 C   0  0  0  0  0  0  0  0  0  0  0  0
    4.5952   -5.5238   -4.2149 C   0  0  0  0  0  0  0  0  0  0  0  0
    4.3485   -6.5679   -3.2399 C   0  0  0  0  0  0  0  0  0  0  0  0
    5.2134   -6.7371   -2.2612 C   0  0  0  0  0  0  0  0  0  0  0  0
    4.9383   -7.5818   -1.0887 C   0  0  0  0  0  0  0  0  0  0  0  0
    0.3402   -5.9881   -9.2533 C   0  0  0  0  0  0  0  0  0  0  0  0
   -0.4260   -3.6565   -8.8636 C   0  0  0  0  0  0  0  0  0  0  0  0
    3.4794   -3.0621  -11.3511 C   0  0  0  0  0  0  0  0  0  0  0  0
    5.7297   -3.6223   -7.8661 C   0  0  0  0  0  0  0  0  0  0  0  0
    3.1483   -7.4558   -3.3579 C   0  0  0  0  0  0  0  0  0  0  0  0
  1  2  1  0
  1  6  1  0
  1 16  1  1
  1 17  1  0
  2  3  1  0
  3  4  1  0
  4  5  1  0
  5  6  2  0
  5 18  1  0
  6  7  1  0
  7  8  2  0
  8  9  1  0
  9 10  2  0
  9 19  1  0
 10 11  1  0
 11 12  2  0
 12 13  1  0
 13 14  2  0
 13 20  1  0
 14 15  1  0
M  END
$$$$
