
     RDKit          3D

 14 14  0  0  0  0  0  0  0  0999 V2000
    4.9914  -11.8689  -34.5460 C   0  0  0  0  0  0  0  0  0  0  0  0
    5.2987  -13.1738  -34.2043 C   0  0  0  0  0  0  0  0  0  0  0  0
    5.8427  -13.4285  -32.9562 C   0  0  0  0  0  0  0  0  0  0  0  0
    6.0703  -12.3921  -32.0767 C   0  0  0  0  0  0  0  0  0  0  0  0
    5.7802  -11.0783  -32.3752 C   0  0  0  0  0  0  0  0  0  0  0  0
    5.2311  -10.8657  -33.6482 C   0  0  0  0  0  0  0  0  0  0  0  0
    6.0187   -9.9386  -31.4750 C   0  0  0  0  0  0  0  0  0  0  0  0
    5.5389   -9.0511  -29.2501 C   0  0  0  0  0  0  0  0  0  0  0  0
    2.7742   -9.6131  -26.9926 C   0  0  0  0  0  0  0  0  0  0  0  0
    4.9465   -9.1934  -27.9550 N   0  0  0  0  0  0  0  0  0  0  0  0
    5.3675   -9.9857  -30.2435 O   0  0  0  0  0  0  0  0  0  0  0  0
    6.2241   -8.0152  -29.4140 O   0  0  0  0  0  0  0  0  0  0  0  0
    3.8855  -10.0314  -27.7107 O   0  0  0  0  0  0  0  0  0  0  0  0
    1.6648  -10.1277  -27.2844 O   0  0  0  0  0  0  0  0  0  0  0  0
  1  2  2  0
  6  1  1  0
  3  2  1  0
  4  3  2  0
  5  4  1  0
  5  6  2  0
  7  5  1  0
 11  7  1  0
 10  8  1  0
  8 11  1  0
  8 12  2  0
 13  9  1  0
  9 14  2  0
 10 13  1  0
M  END
$$$$
