
     RDKit          3D

 14 14  0  0  0  0  0  0  0  0999 V2000
    6.6626  -12.0391  -31.1741 C   0  0  0  0  0  0  0  0  0  0  0  0
    5.6911  -11.0943  -31.4524 C   0  0  0  0  0  0  0  0  0  0  0  0
    4.9994  -11.1780  -32.6495 C   0  0  0  0  0  0  0  0  0  0  0  0
    5.2819  -12.1896  -33.5417 C   0  0  0  0  0  0  0  0  0  0  0  0
    6.2409  -13.1510  -33.3061 C   0  0  0  0  0  0  0  0  0  0  0  0
    6.9164  -13.0288  -32.0830 C   0  0  0  0  0  0  0  0  0  0  0  0
    6.5865  -14.2398  -34.2340 C   0  0  0  0  0  0  0  0  0  0  0  0
    7.4933  -14.7285  -36.4491 C   0  0  0  0  0  0  0  0  0  0  0  0
    8.3925  -12.3471  -39.0280 C   0  0  0  0  0  0  0  0  0  0  0  0
    8.1661  -14.3078  -37.6403 N   0  0  0  0  0  0  0  0  0  0  0  0
    7.1703  -13.8535  -35.4393 O   0  0  0  0  0  0  0  0  0  0  0  0
    7.2199  -15.9497  -36.3923 O   0  0  0  0  0  0  0  0  0  0  0  0
    8.6022  -13.0190  -37.8322 O   0  0  0  0  0  0  0  0  0  0  0  0
    7.2509  -12.4272  -39.5486 O   0  0  0  0  0  0  0  0  0  0  0  0
  1  2  2  0
  6  1  1  0
  3  2  1  0
  4  3  2  0
  5  4  1  0
  5  6  2  0
  7  5  1  0
 11  7  1  0
 10  8  1  0
  8 11  1  0
  8 12  2  0
 13  9  1  0
  9 14  2  0
 10 13  1  0
M  END
$$$$
