
     RDKit          3D

 14 14  0  0  0  0  0  0  0  0999 V2000
    3.8263  -11.3800  -37.3900 C   0  0  0  0  0  0  0  0  0  0  0  0
    5.1057  -11.7822  -37.7296 C   0  0  0  0  0  0  0  0  0  0  0  0
    6.0085  -12.0666  -36.7184 C   0  0  0  0  0  0  0  0  0  0  0  0
    5.6286  -11.9478  -35.3990 C   0  0  0  0  0  0  0  0  0  0  0  0
    4.3659  -11.5504  -35.0153 C   0  0  0  0  0  0  0  0  0  0  0  0
    3.4844  -11.2729  -36.0704 C   0  0  0  0  0  0  0  0  0  0  0  0
    3.9198  -11.3957  -33.6214 C   0  0  0  0  0  0  0  0  0  0  0  0
    4.5525  -10.5080  -31.4351 C   0  0  0  0  0  0  0  0  0  0  0  0
    7.3784   -9.2786  -29.5051 C   0  0  0  0  0  0  0  0  0  0  0  0
    5.2902   -9.5370  -30.6857 N   0  0  0  0  0  0  0  0  0  0  0  0
    4.8195  -10.7742  -32.7571 O   0  0  0  0  0  0  0  0  0  0  0  0
    3.6470  -11.0975  -30.8013 O   0  0  0  0  0  0  0  0  0  0  0  0
    6.1358   -9.8770  -29.6575 O   0  0  0  0  0  0  0  0  0  0  0  0
    7.4054   -8.0427  -29.2758 O   0  0  0  0  0  0  0  0  0  0  0  0
  1  2  2  0
  6  1  1  0
  3  2  1  0
  4  3  2  0
  5  4  1  0
  5  6  2  0
  7  5  1  0
 11  7  1  0
 10  8  1  0
  8 11  1  0
  8 12  2  0
 13  9  1  0
  9 14  2  0
 10 13  1  0
M  END
$$$$
