
     RDKit          3D

 14 14  0  0  0  0  0  0  0  0999 V2000
    4.5288  -10.7981  -39.9234 C   0  0  0  0  0  0  0  0  0  0  0  0
    4.5317  -12.1812  -39.8935 C   0  0  0  0  0  0  0  0  0  0  0  0
    4.6522  -12.8242  -38.6726 C   0  0  0  0  0  0  0  0  0  0  0  0
    4.7666  -12.0890  -37.5126 C   0  0  0  0  0  0  0  0  0  0  0  0
    4.7688  -10.7108  -37.4955 C   0  0  0  0  0  0  0  0  0  0  0  0
    4.6445  -10.1011  -38.7526 C   0  0  0  0  0  0  0  0  0  0  0  0
    4.9027   -9.8846  -36.2850 C   0  0  0  0  0  0  0  0  0  0  0  0
    5.8946   -9.8496  -34.0528 C   0  0  0  0  0  0  0  0  0  0  0  0
    5.8307  -12.1566  -31.3242 C   0  0  0  0  0  0  0  0  0  0  0  0
    6.5252  -10.5236  -32.9589 N   0  0  0  0  0  0  0  0  0  0  0  0
    5.4557  -10.5159  -35.1722 O   0  0  0  0  0  0  0  0  0  0  0  0
    5.7712   -8.6102  -33.9178 O   0  0  0  0  0  0  0  0  0  0  0  0
    6.2250  -11.8184  -32.6109 O   0  0  0  0  0  0  0  0  0  0  0  0
    6.2272  -11.4244  -30.3822 O   0  0  0  0  0  0  0  0  0  0  0  0
  1  2  2  0
  6  1  1  0
  3  2  1  0
  4  3  2  0
  5  4  1  0
  5  6  2  0
  7  5  1  0
 11  7  1  0
 10  8  1  0
  8 11  1  0
  8 12  2  0
 13  9  1  0
  9 14  2  0
 10 13  1  0
M  END
$$$$
