
     RDKit          3D

 14 14  0  0  0  0  0  0  0  0999 V2000
    3.9918  -11.1886  -33.8505 C   0  0  0  0  0  0  0  0  0  0  0  0
    4.4786  -12.4662  -34.0619 C   0  0  0  0  0  0  0  0  0  0  0  0
    5.5060  -12.9326  -33.2584 C   0  0  0  0  0  0  0  0  0  0  0  0
    6.0278  -12.1291  -32.2677 C   0  0  0  0  0  0  0  0  0  0  0  0
    5.5743  -10.8509  -32.0225 C   0  0  0  0  0  0  0  0  0  0  0  0
    4.5339  -10.4194  -32.8584 C   0  0  0  0  0  0  0  0  0  0  0  0
    6.1094   -9.9525  -30.9870 C   0  0  0  0  0  0  0  0  0  0  0  0
    5.5790   -8.8301  -28.8830 C   0  0  0  0  0  0  0  0  0  0  0  0
    2.5211   -9.0324  -26.8342 C   0  0  0  0  0  0  0  0  0  0  0  0
    4.6555   -8.5185  -27.8348 N   0  0  0  0  0  0  0  0  0  0  0  0
    5.2547   -9.6680  -29.9234 O   0  0  0  0  0  0  0  0  0  0  0  0
    6.7028   -8.2854  -28.7850 O   0  0  0  0  0  0  0  0  0  0  0  0
    3.3045   -8.7445  -27.9426 O   0  0  0  0  0  0  0  0  0  0  0  0
    2.4907  -10.2246  -26.4364 O   0  0  0  0  0  0  0  0  0  0  0  0
  1  2  2  0
  6  1  1  0
  3  2  1  0
  4  3  2  0
  5  4  1  0
  5  6  2  0
  7  5  1  0
 11  7  1  0
 10  8  1  0
  8 11  1  0
  8 12  2  0
 13  9  1  0
  9 14  2  0
 10 13  1  0
M  END
$$$$
