
     RDKit          3D

 14 14  0  0  0  0  0  0  0  0999 V2000
    4.2163  -10.8544  -36.1414 C   0  0  0  0  0  0  0  0  0  0  0  0
    5.2173  -11.7918  -36.3232 C   0  0  0  0  0  0  0  0  0  0  0  0
    5.6599  -12.5190  -35.2305 C   0  0  0  0  0  0  0  0  0  0  0  0
    5.1055  -12.3046  -33.9871 C   0  0  0  0  0  0  0  0  0  0  0  0
    4.1076  -11.3816  -33.7602 C   0  0  0  0  0  0  0  0  0  0  0  0
    3.6896  -10.6682  -34.8932 C   0  0  0  0  0  0  0  0  0  0  0  0
    3.4962  -11.1084  -32.4497 C   0  0  0  0  0  0  0  0  0  0  0  0
    3.9769  -10.3979  -30.1623 C   0  0  0  0  0  0  0  0  0  0  0  0
    6.4002   -8.2271  -28.5757 C   0  0  0  0  0  0  0  0  0  0  0  0
    4.9181  -10.0442  -29.1436 N   0  0  0  0  0  0  0  0  0  0  0  0
    4.3525  -10.6151  -31.4667 O   0  0  0  0  0  0  0  0  0  0  0  0
    2.7876  -10.4954  -29.7810 O   0  0  0  0  0  0  0  0  0  0  0  0
    6.0361   -9.2861  -29.3950 O   0  0  0  0  0  0  0  0  0  0  0  0
    5.4964   -7.6816  -27.8929 O   0  0  0  0  0  0  0  0  0  0  0  0
  1  2  2  0
  6  1  1  0
  3  2  1  0
  4  3  2  0
  5  4  1  0
  5  6  2  0
  7  5  1  0
 11  7  1  0
 10  8  1  0
  8 11  1  0
  8 12  2  0
 13  9  1  0
  9 14  2  0
 10 13  1  0
M  END
$$$$
