
     RDKit          3D

 14 14  0  0  0  0  0  0  0  0999 V2000
    4.0867  -11.4116  -37.9256 C   0  0  0  0  0  0  0  0  0  0  0  0
    4.6818  -12.6223  -38.2321 C   0  0  0  0  0  0  0  0  0  0  0  0
    5.0876  -13.4495  -37.1978 C   0  0  0  0  0  0  0  0  0  0  0  0
    4.8972  -13.0635  -35.8886 C   0  0  0  0  0  0  0  0  0  0  0  0
    4.3098  -11.8672  -35.5376 C   0  0  0  0  0  0  0  0  0  0  0  0
    3.9140  -11.0611  -36.6151 C   0  0  0  0  0  0  0  0  0  0  0  0
    4.0988  -11.4070  -34.1557 C   0  0  0  0  0  0  0  0  0  0  0  0
    5.2501  -10.7855  -32.0926 C   0  0  0  0  0  0  0  0  0  0  0  0
    8.8578  -10.5131  -31.4812 C   0  0  0  0  0  0  0  0  0  0  0  0
    6.4566  -10.6918  -31.3284 N   0  0  0  0  0  0  0  0  0  0  0  0
    5.2498  -11.1056  -33.4295 O   0  0  0  0  0  0  0  0  0  0  0  0
    4.1953  -10.5551  -31.4572 O   0  0  0  0  0  0  0  0  0  0  0  0
    7.5842  -10.0594  -31.7935 O   0  0  0  0  0  0  0  0  0  0  0  0
    9.0458  -10.9710  -30.3255 O   0  0  0  0  0  0  0  0  0  0  0  0
  1  2  2  0
  6  1  1  0
  3  2  1  0
  4  3  2  0
  5  4  1  0
  5  6  2  0
  7  5  1  0
 11  7  1  0
 10  8  1  0
  8 11  1  0
  8 12  2  0
 13  9  1  0
  9 14  2  0
 10 13  1  0
M  END
$$$$
