
     RDKit          3D

 14 14  0  0  0  0  0  0  0  0999 V2000
    7.2942  -11.9886  -35.9271 C   0  0  0  0  0  0  0  0  0  0  0  0
    7.8494  -13.2247  -35.6481 C   0  0  0  0  0  0  0  0  0  0  0  0
    7.4243  -13.9109  -34.5225 C   0  0  0  0  0  0  0  0  0  0  0  0
    6.4636  -13.3626  -33.7005 C   0  0  0  0  0  0  0  0  0  0  0  0
    5.8843  -12.1351  -33.9395 C   0  0  0  0  0  0  0  0  0  0  0  0
    6.3434  -11.4753  -35.0890 C   0  0  0  0  0  0  0  0  0  0  0  0
    4.8668  -11.5040  -33.0836 C   0  0  0  0  0  0  0  0  0  0  0  0
    4.5361   -9.9206  -31.2530 C   0  0  0  0  0  0  0  0  0  0  0  0
    6.2014   -8.3499  -28.3702 C   0  0  0  0  0  0  0  0  0  0  0  0
    5.0381   -8.8716  -30.4185 N   0  0  0  0  0  0  0  0  0  0  0  0
    5.3448  -10.6294  -32.1093 O   0  0  0  0  0  0  0  0  0  0  0  0
    3.3084  -10.1466  -31.1477 O   0  0  0  0  0  0  0  0  0  0  0  0
    5.1974   -9.0131  -29.0612 O   0  0  0  0  0  0  0  0  0  0  0  0
    6.8593   -7.4784  -28.9933 O   0  0  0  0  0  0  0  0  0  0  0  0
  1  2  2  0
  6  1  1  0
  3  2  1  0
  4  3  2  0
  5  4  1  0
  5  6  2  0
  7  5  1  0
 11  7  1  0
 10  8  1  0
  8 11  1  0
  8 12  2  0
 13  9  1  0
  9 14  2  0
 10 13  1  0
M  END
$$$$
