
     RDKit          3D

 14 14  0  0  0  0  0  0  0  0999 V2000
    3.1000  -11.2876  -36.5996 C   0  0  0  0  0  0  0  0  0  0  0  0
    4.0215  -11.0251  -37.5975 C   0  0  0  0  0  0  0  0  0  0  0  0
    5.3686  -11.0034  -37.2759 C   0  0  0  0  0  0  0  0  0  0  0  0
    5.7738  -11.2407  -35.9803 C   0  0  0  0  0  0  0  0  0  0  0  0
    4.8913  -11.5057  -34.9554 C   0  0  0  0  0  0  0  0  0  0  0  0
    3.5383  -11.5183  -35.3250 C   0  0  0  0  0  0  0  0  0  0  0  0
    5.2760  -11.7508  -33.5561 C   0  0  0  0  0  0  0  0  0  0  0  0
    5.6206  -10.6763  -31.3894 C   0  0  0  0  0  0  0  0  0  0  0  0
    6.2012   -8.7603  -28.3463 C   0  0  0  0  0  0  0  0  0  0  0  0
    5.5894   -9.5136  -30.5552 N   0  0  0  0  0  0  0  0  0  0  0  0
    5.2325  -10.6457  -32.7078 O   0  0  0  0  0  0  0  0  0  0  0  0
    6.0264  -11.7228  -30.8332 O   0  0  0  0  0  0  0  0  0  0  0  0
    5.4660   -9.5822  -29.1885 O   0  0  0  0  0  0  0  0  0  0  0  0
    6.4685   -7.6007  -28.7520 O   0  0  0  0  0  0  0  0  0  0  0  0
  1  2  2  0
  6  1  1  0
  3  2  1  0
  4  3  2  0
  5  4  1  0
  5  6  2  0
  7  5  1  0
 11  7  1  0
 10  8  1  0
  8 11  1  0
  8 12  2  0
 13  9  1  0
  9 14  2  0
 10 13  1  0
M  END
$$$$
