
     RDKit          3D

 14 14  0  0  0  0  0  0  0  0999 V2000
    5.5620   -9.8780  -30.5758 C   0  0  0  0  0  0  0  0  0  0  0  0
    4.2233   -9.8849  -30.2267 C   0  0  0  0  0  0  0  0  0  0  0  0
    3.2936  -10.3384  -31.1479 C   0  0  0  0  0  0  0  0  0  0  0  0
    3.7057  -10.7734  -32.3890 C   0  0  0  0  0  0  0  0  0  0  0  0
    5.0276  -10.7835  -32.7790 C   0  0  0  0  0  0  0  0  0  0  0  0
    5.9345  -10.3166  -31.8163 C   0  0  0  0  0  0  0  0  0  0  0  0
    5.5127  -11.2248  -34.0966 C   0  0  0  0  0  0  0  0  0  0  0  0
    6.4540  -13.1537  -35.2632 C   0  0  0  0  0  0  0  0  0  0  0  0
    7.3216  -16.1380  -36.9454 C   0  0  0  0  0  0  0  0  0  0  0  0
    7.0325  -14.4626  -35.2335 N   0  0  0  0  0  0  0  0  0  0  0  0
    6.2073  -12.4330  -34.1189 O   0  0  0  0  0  0  0  0  0  0  0  0
    6.1888  -12.7120  -36.4051 O   0  0  0  0  0  0  0  0  0  0  0  0
    7.7373  -14.9881  -36.2894 O   0  0  0  0  0  0  0  0  0  0  0  0
    7.9575  -16.4842  -37.9732 O   0  0  0  0  0  0  0  0  0  0  0  0
  1  2  2  0
  6  1  1  0
  3  2  1  0
  4  3  2  0
  5  4  1  0
  5  6  2  0
  7  5  1  0
 11  7  1  0
 10  8  1  0
  8 11  1  0
  8 12  2  0
 13  9  1  0
  9 14  2  0
 10 13  1  0
M  END
$$$$
