
     RDKit          3D

 14 14  0  0  0  0  0  0  0  0999 V2000
    6.5323  -12.1910  -34.9684 C   0  0  0  0  0  0  0  0  0  0  0  0
    7.3677  -12.1661  -33.8660 C   0  0  0  0  0  0  0  0  0  0  0  0
    8.1459  -13.2783  -33.5905 C   0  0  0  0  0  0  0  0  0  0  0  0
    8.0816  -14.3864  -34.4073 C   0  0  0  0  0  0  0  0  0  0  0  0
    7.2640  -14.4551  -35.5147 C   0  0  0  0  0  0  0  0  0  0  0  0
    6.4942  -13.3078  -35.7566 C   0  0  0  0  0  0  0  0  0  0  0  0
    7.1515  -15.6204  -36.4066 C   0  0  0  0  0  0  0  0  0  0  0  0
    6.4077  -16.2881  -38.6357 C   0  0  0  0  0  0  0  0  0  0  0  0
    4.1533  -16.2998  -41.3804 C   0  0  0  0  0  0  0  0  0  0  0  0
    6.0483  -15.8601  -39.9534 N   0  0  0  0  0  0  0  0  0  0  0  0
    6.3819  -15.4394  -37.5545 O   0  0  0  0  0  0  0  0  0  0  0  0
    6.7470  -17.4900  -38.5377 O   0  0  0  0  0  0  0  0  0  0  0  0
    4.7487  -15.6188  -40.3282 O   0  0  0  0  0  0  0  0  0  0  0  0
    4.7635  -17.2933  -41.8507 O   0  0  0  0  0  0  0  0  0  0  0  0
  1  2  2  0
  6  1  1  0
  3  2  1  0
  4  3  2  0
  5  4  1  0
  5  6  2  0
  7  5  1  0
 11  7  1  0
 10  8  1  0
  8 11  1  0
  8 12  2  0
 13  9  1  0
  9 14  2  0
 10 13  1  0
M  END
$$$$
