
     RDKit          3D

 14 14  0  0  0  0  0  0  0  0999 V2000
    6.0625  -14.4733  -34.2097 C   0  0  0  0  0  0  0  0  0  0  0  0
    5.8540  -13.1736  -33.7841 C   0  0  0  0  0  0  0  0  0  0  0  0
    6.0912  -12.1336  -34.6677 C   0  0  0  0  0  0  0  0  0  0  0  0
    6.5276  -12.3999  -35.9475 C   0  0  0  0  0  0  0  0  0  0  0  0
    6.7488  -13.6780  -36.4134 C   0  0  0  0  0  0  0  0  0  0  0  0
    6.4961  -14.7000  -35.4866 C   0  0  0  0  0  0  0  0  0  0  0  0
    7.2275  -14.0098  -37.7650 C   0  0  0  0  0  0  0  0  0  0  0  0
    6.4684  -14.7027  -39.9811 C   0  0  0  0  0  0  0  0  0  0  0  0
    3.2853  -16.1612  -41.1049 C   0  0  0  0  0  0  0  0  0  0  0  0
    5.3894  -15.0038  -40.8721 N   0  0  0  0  0  0  0  0  0  0  0  0
    6.2877  -14.5766  -38.6243 O   0  0  0  0  0  0  0  0  0  0  0  0
    7.5880  -14.5625  -40.5253 O   0  0  0  0  0  0  0  0  0  0  0  0
    4.1164  -15.2763  -40.4329 O   0  0  0  0  0  0  0  0  0  0  0  0
    3.1447  -17.3119  -40.6181 O   0  0  0  0  0  0  0  0  0  0  0  0
  1  2  2  0
  6  1  1  0
  3  2  1  0
  4  3  2  0
  5  4  1  0
  5  6  2  0
  7  5  1  0
 11  7  1  0
 10  8  1  0
  8 11  1  0
  8 12  2  0
 13  9  1  0
  9 14  2  0
 10 13  1  0
M  END
$$$$
