
     RDKit          3D

 14 14  0  0  0  0  0  0  0  0999 V2000
    4.7200  -10.0270  -35.9505 C   0  0  0  0  0  0  0  0  0  0  0  0
    3.6574  -10.2648  -36.8040 C   0  0  0  0  0  0  0  0  0  0  0  0
    3.6296  -11.4470  -37.5253 C   0  0  0  0  0  0  0  0  0  0  0  0
    4.6486  -12.3647  -37.3878 C   0  0  0  0  0  0  0  0  0  0  0  0
    5.7256  -12.1691  -36.5504 C   0  0  0  0  0  0  0  0  0  0  0  0
    5.7135  -10.9601  -35.8395 C   0  0  0  0  0  0  0  0  0  0  0  0
    6.8425  -13.1127  -36.3819 C   0  0  0  0  0  0  0  0  0  0  0  0
    8.7962  -13.6250  -35.0076 C   0  0  0  0  0  0  0  0  0  0  0  0
   10.8519  -14.5327  -32.4600 C   0  0  0  0  0  0  0  0  0  0  0  0
    9.8237  -13.1376  -34.1385 N   0  0  0  0  0  0  0  0  0  0  0  0
    7.6502  -12.9103  -35.2641 O   0  0  0  0  0  0  0  0  0  0  0  0
    9.0151  -14.7481  -35.5175 O   0  0  0  0  0  0  0  0  0  0  0  0
    9.9493  -13.5470  -32.8330 O   0  0  0  0  0  0  0  0  0  0  0  0
   12.0757  -14.2482  -32.5030 O   0  0  0  0  0  0  0  0  0  0  0  0
  1  2  2  0
  6  1  1  0
  3  2  1  0
  4  3  2  0
  5  4  1  0
  5  6  2  0
  7  5  1  0
 11  7  1  0
 10  8  1  0
  8 11  1  0
  8 12  2  0
 13  9  1  0
  9 14  2  0
 10 13  1  0
M  END
$$$$
