
     RDKit          3D

 14 14  0  0  0  0  0  0  0  0999 V2000
    3.2439  -10.3476  -34.7268 C   0  0  0  0  0  0  0  0  0  0  0  0
    2.9917  -10.5335  -36.0743 C   0  0  0  0  0  0  0  0  0  0  0  0
    3.8278  -11.3626  -36.8037 C   0  0  0  0  0  0  0  0  0  0  0  0
    4.8907  -11.9873  -36.1879 C   0  0  0  0  0  0  0  0  0  0  0  0
    5.1794  -11.8305  -34.8494 C   0  0  0  0  0  0  0  0  0  0  0  0
    4.3079  -10.9834  -34.1491 C   0  0  0  0  0  0  0  0  0  0  0  0
    6.3099  -12.4648  -34.1525 C   0  0  0  0  0  0  0  0  0  0  0  0
    8.7479  -12.5899  -34.0603 C   0  0  0  0  0  0  0  0  0  0  0  0
   12.1776  -12.6854  -34.2677 C   0  0  0  0  0  0  0  0  0  0  0  0
    9.9423  -11.8013  -34.0614 N   0  0  0  0  0  0  0  0  0  0  0  0
    7.5790  -12.1546  -34.6382 O   0  0  0  0  0  0  0  0  0  0  0  0
    8.8432  -13.7042  -33.4958 O   0  0  0  0  0  0  0  0  0  0  0  0
   11.0408  -12.1166  -34.8240 O   0  0  0  0  0  0  0  0  0  0  0  0
   12.7140  -12.0878  -33.3003 O   0  0  0  0  0  0  0  0  0  0  0  0
  1  2  2  0
  6  1  1  0
  3  2  1  0
  4  3  2  0
  5  4  1  0
  5  6  2  0
  7  5  1  0
 11  7  1  0
 10  8  1  0
  8 11  1  0
  8 12  2  0
 13  9  1  0
  9 14  2  0
 10 13  1  0
M  END
$$$$
