
     RDKit          3D

 14 14  0  0  0  0  0  0  0  0999 V2000
    3.8425  -11.8212  -37.9973 C   0  0  0  0  0  0  0  0  0  0  0  0
    4.4115  -11.0512  -38.9960 C   0  0  0  0  0  0  0  0  0  0  0  0
    5.6424  -10.4592  -38.7656 C   0  0  0  0  0  0  0  0  0  0  0  0
    6.2814  -10.6404  -37.5581 C   0  0  0  0  0  0  0  0  0  0  0  0
    5.7517  -11.3981  -36.5359 C   0  0  0  0  0  0  0  0  0  0  0  0
    4.5052  -11.9789  -36.8116 C   0  0  0  0  0  0  0  0  0  0  0  0
    6.3898  -11.6079  -35.2264 C   0  0  0  0  0  0  0  0  0  0  0  0
    6.3355  -10.9228  -32.8821 C   0  0  0  0  0  0  0  0  0  0  0  0
    5.1484   -9.2773  -29.7778 C   0  0  0  0  0  0  0  0  0  0  0  0
    5.4789  -10.5601  -31.7942 N   0  0  0  0  0  0  0  0  0  0  0  0
    5.9583  -10.7747  -34.1957 O   0  0  0  0  0  0  0  0  0  0  0  0
    7.4524  -11.3844  -32.5524 O   0  0  0  0  0  0  0  0  0  0  0  0
    5.6509   -9.4087  -31.0645 O   0  0  0  0  0  0  0  0  0  0  0  0
    4.0093   -9.7560  -29.5457 O   0  0  0  0  0  0  0  0  0  0  0  0
  1  2  2  0
  6  1  1  0
  3  2  1  0
  4  3  2  0
  5  4  1  0
  5  6  2  0
  7  5  1  0
 11  7  1  0
 10  8  1  0
  8 11  1  0
  8 12  2  0
 13  9  1  0
  9 14  2  0
 10 13  1  0
M  END
$$$$
