
     RDKit          3D

 14 14  0  0  0  0  0  0  0  0999 V2000
    5.1536  -10.5238  -34.1610 C   0  0  0  0  0  0  0  0  0  0  0  0
    5.4922  -11.7905  -34.6024 C   0  0  0  0  0  0  0  0  0  0  0  0
    5.0062  -12.8908  -33.9157 C   0  0  0  0  0  0  0  0  0  0  0  0
    4.1994  -12.7159  -32.8122 C   0  0  0  0  0  0  0  0  0  0  0  0
    3.8374  -11.4737  -32.3375 C   0  0  0  0  0  0  0  0  0  0  0  0
    4.3510  -10.3881  -33.0622 C   0  0  0  0  0  0  0  0  0  0  0  0
    2.9912  -11.2380  -31.1566 C   0  0  0  0  0  0  0  0  0  0  0  0
    2.8510  -10.0252  -29.0407 C   0  0  0  0  0  0  0  0  0  0  0  0
    5.2442   -7.6335  -27.6191 C   0  0  0  0  0  0  0  0  0  0  0  0
    3.3434   -9.0232  -28.1450 N   0  0  0  0  0  0  0  0  0  0  0  0
    3.4915  -10.3397  -30.2156 O   0  0  0  0  0  0  0  0  0  0  0  0
    1.7957  -10.5947  -28.6781 O   0  0  0  0  0  0  0  0  0  0  0  0
    4.2894   -8.0972  -28.5128 O   0  0  0  0  0  0  0  0  0  0  0  0
    5.4365   -8.3035  -26.5728 O   0  0  0  0  0  0  0  0  0  0  0  0
  1  2  2  0
  6  1  1  0
  3  2  1  0
  4  3  2  0
  5  4  1  0
  5  6  2  0
  7  5  1  0
 11  7  1  0
 10  8  1  0
  8 11  1  0
  8 12  2  0
 13  9  1  0
  9 14  2  0
 10 13  1  0
M  END
$$$$
