
     RDKit          3D

 14 14  0  0  0  0  0  0  0  0999 V2000
    4.2613  -12.7343  -34.9979 C   0  0  0  0  0  0  0  0  0  0  0  0
    5.2770  -11.9696  -35.5432 C   0  0  0  0  0  0  0  0  0  0  0  0
    5.6469  -10.7961  -34.9070 C   0  0  0  0  0  0  0  0  0  0  0  0
    5.0074  -10.4058  -33.7503 C   0  0  0  0  0  0  0  0  0  0  0  0
    3.9910  -11.1358  -33.1727 C   0  0  0  0  0  0  0  0  0  0  0  0
    3.6488  -12.3159  -33.8490 C   0  0  0  0  0  0  0  0  0  0  0  0
    3.2704  -10.7520  -31.9482 C   0  0  0  0  0  0  0  0  0  0  0  0
    3.5673   -9.9725  -29.6520 C   0  0  0  0  0  0  0  0  0  0  0  0
    6.1968   -7.9422  -28.2410 C   0  0  0  0  0  0  0  0  0  0  0  0
    4.4128   -9.5296  -28.5855 N   0  0  0  0  0  0  0  0  0  0  0  0
    4.0562  -10.2735  -30.9011 O   0  0  0  0  0  0  0  0  0  0  0  0
    2.3511  -10.0664  -29.3666 O   0  0  0  0  0  0  0  0  0  0  0  0
    5.7097   -9.1220  -28.7851 O   0  0  0  0  0  0  0  0  0  0  0  0
    5.3752   -7.1823  -27.6681 O   0  0  0  0  0  0  0  0  0  0  0  0
  1  2  2  0
  6  1  1  0
  3  2  1  0
  4  3  2  0
  5  4  1  0
  5  6  2  0
  7  5  1  0
 11  7  1  0
 10  8  1  0
  8 11  1  0
  8 12  2  0
 13  9  1  0
  9 14  2  0
 10 13  1  0
M  END
$$$$
