
     RDKit          3D

 14 14  0  0  0  0  0  0  0  0999 V2000
   -0.1758  -12.5574  -38.2348 C   0  0  0  0  0  0  0  0  0  0  0  0
    1.1754  -12.2701  -38.1580 C   0  0  0  0  0  0  0  0  0  0  0  0
    1.9279  -12.2748  -39.3209 C   0  0  0  0  0  0  0  0  0  0  0  0
    1.3309  -12.5622  -40.5294 C   0  0  0  0  0  0  0  0  0  0  0  0
   -0.0104  -12.8543  -40.6523 C   0  0  0  0  0  0  0  0  0  0  0  0
   -0.7343  -12.8382  -39.4510 C   0  0  0  0  0  0  0  0  0  0  0  0
   -0.6879  -13.1806  -41.9174 C   0  0  0  0  0  0  0  0  0  0  0  0
   -0.9017  -14.8799  -43.6594 C   0  0  0  0  0  0  0  0  0  0  0  0
    1.3743  -17.5631  -44.3996 C   0  0  0  0  0  0  0  0  0  0  0  0
   -0.5862  -16.1733  -44.1850 N   0  0  0  0  0  0  0  0  0  0  0  0
   -0.3815  -14.4220  -42.4722 O   0  0  0  0  0  0  0  0  0  0  0  0
   -1.6849  -14.1954  -44.3575 O   0  0  0  0  0  0  0  0  0  0  0  0
    0.3724  -16.9872  -43.6315 O   0  0  0  0  0  0  0  0  0  0  0  0
    1.9184  -16.8474  -45.2785 O   0  0  0  0  0  0  0  0  0  0  0  0
  1  2  2  0
  6  1  1  0
  3  2  1  0
  4  3  2  0
  5  4  1  0
  5  6  2  0
  7  5  1  0
 11  7  1  0
 10  8  1  0
  8 11  1  0
  8 12  2  0
 13  9  1  0
  9 14  2  0
 10 13  1  0
M  END
$$$$
