
     RDKit          3D

 14 14  0  0  0  0  0  0  0  0999 V2000
    9.9322  -13.4477  -33.7326 C   0  0  0  0  0  0  0  0  0  0  0  0
   10.6023  -12.2618  -33.9743 C   0  0  0  0  0  0  0  0  0  0  0  0
    9.9944  -11.2977  -34.7615 C   0  0  0  0  0  0  0  0  0  0  0  0
    8.7423  -11.5260  -35.2903 C   0  0  0  0  0  0  0  0  0  0  0  0
    8.0391  -12.6918  -35.0760 C   0  0  0  0  0  0  0  0  0  0  0  0
    8.6912  -13.6398  -34.2739 C   0  0  0  0  0  0  0  0  0  0  0  0
    6.7080  -12.9854  -35.6308 C   0  0  0  0  0  0  0  0  0  0  0  0
    6.1047  -13.9334  -37.7999 C   0  0  0  0  0  0  0  0  0  0  0  0
    4.8561  -16.1976  -40.3873 C   0  0  0  0  0  0  0  0  0  0  0  0
    6.1647  -15.0015  -38.7509 N   0  0  0  0  0  0  0  0  0  0  0  0
    6.6438  -14.0400  -36.5399 O   0  0  0  0  0  0  0  0  0  0  0  0
    5.5265  -12.8955  -38.1971 O   0  0  0  0  0  0  0  0  0  0  0  0
    5.4043  -15.0218  -39.8951 O   0  0  0  0  0  0  0  0  0  0  0  0
    3.7650  -16.1168  -41.0067 O   0  0  0  0  0  0  0  0  0  0  0  0
  1  2  2  0
  6  1  1  0
  3  2  1  0
  4  3  2  0
  5  4  1  0
  5  6  2  0
  7  5  1  0
 11  7  1  0
 10  8  1  0
  8 11  1  0
  8 12  2  0
 13  9  1  0
  9 14  2  0
 10 13  1  0
M  END
$$$$
