
     RDKit          3D

 14 14  0  0  0  0  0  0  0  0999 V2000
    3.7420   -9.8845  -32.1452 C   0  0  0  0  0  0  0  0  0  0  0  0
    2.4301  -10.2691  -32.3574 C   0  0  0  0  0  0  0  0  0  0  0  0
    2.1054  -10.9185  -33.5370 C   0  0  0  0  0  0  0  0  0  0  0  0
    3.0805  -11.1725  -34.4772 C   0  0  0  0  0  0  0  0  0  0  0  0
    4.3986  -10.8071  -34.3079 C   0  0  0  0  0  0  0  0  0  0  0  0
    4.6830  -10.1529  -33.1003 C   0  0  0  0  0  0  0  0  0  0  0  0
    5.4700  -11.0442  -35.2886 C   0  0  0  0  0  0  0  0  0  0  0  0
    7.2415  -12.5970  -35.9355 C   0  0  0  0  0  0  0  0  0  0  0  0
    9.3019  -15.3669  -36.9939 C   0  0  0  0  0  0  0  0  0  0  0  0
    7.9839  -13.8010  -35.7165 N   0  0  0  0  0  0  0  0  0  0  0  0
    6.1659  -12.2445  -35.1554 O   0  0  0  0  0  0  0  0  0  0  0  0
    7.6412  -11.8880  -36.8878 O   0  0  0  0  0  0  0  0  0  0  0  0
    8.0825  -14.7956  -36.6593 O   0  0  0  0  0  0  0  0  0  0  0  0
    9.9623  -15.9111  -36.0729 O   0  0  0  0  0  0  0  0  0  0  0  0
  1  2  2  0
  6  1  1  0
  3  2  1  0
  4  3  2  0
  5  4  1  0
  5  6  2  0
  7  5  1  0
 11  7  1  0
 10  8  1  0
  8 11  1  0
  8 12  2  0
 13  9  1  0
  9 14  2  0
 10 13  1  0
M  END
$$$$
