
     RDKit          3D

 26 29  0  0  0  0  0  0  0  0999 V2000
   95.9728   10.7025   44.6995 C   0  0  0  0  0  0  0  0  0  0  0  0
   95.1407    9.9191   43.9321 C   0  0  0  0  0  0  0  0  0  0  0  0
   93.7755   10.0096   43.9667 C   0  0  0  0  0  0  0  0  0  0  0  0
   93.2079   10.9566   44.8366 C   0  0  0  0  0  0  0  0  0  0  0  0
   94.0010   11.7514   45.6145 C   0  0  0  0  0  0  0  0  0  0  0  0
   95.3992   11.6244   45.5458 C   0  0  0  0  0  0  0  0  0  0  0  0
   92.9285    9.1631   43.1395 C   0  0  0  0  0  0  0  0  0  0  0  0
   93.3015   12.9127   46.6899 S   0  0  2  0  0  6  0  0  0  0  0  0
   93.8983   14.4426   46.4746 N   0  0  0  0  0  0  0  0  0  0  0  0
   93.6620   12.3832   48.0854 O   0  0  0  0  0  0  0  0  0  0  0  0
   91.7857   12.8396   46.6863 O   0  0  0  0  0  0  0  0  0  0  0  0
   91.8910    8.4049   43.6272 C   0  0  0  0  0  0  0  0  0  0  0  0
   91.3267    7.7542   42.6111 O   0  0  0  0  0  0  0  0  0  0  0  0
   91.9490    8.0590   41.5108 N   0  0  0  0  0  0  0  0  0  0  0  0
   92.9590    8.9356   41.7805 C   0  0  0  0  0  0  0  0  0  0  0  0
   93.9195    9.5494   40.8559 C   0  0  0  0  0  0  0  0  0  0  0  0
   91.3946    8.2557   45.0093 C   0  0  0  0  0  0  0  0  0  0  0  0
   93.3575   15.3469   45.5506 C   0  0  1  0  0  0  0  0  0  0  0  0
   93.6143   16.8102   46.0012 C   0  0  0  0  0  0  0  0  0  0  0  0
   94.9519   17.1615   45.4103 C   0  0  0  0  0  0  0  0  0  0  0  0
   95.0281   16.3880   44.1160 C   0  0  0  0  0  0  0  0  0  0  0  0
   94.0598   15.2571   44.2242 C   0  0  0  0  0  0  0  0  0  0  0  0
   97.3302   10.5610   44.6107 N   0  0  0  0  0  0  0  0  0  0  0  0
   98.1711   11.3127   45.3421 C   0  0  0  0  0  0  0  0  0  0  0  0
   97.6080   12.2326   46.1859 C   0  0  0  0  0  0  0  0  0  0  0  0
   96.2374   12.4129   46.3110 C   0  0  0  0  0  0  0  0  0  0  0  0
  1  2  2  0
  1  6  1  0
  1 23  1  0
  2  3  1  0
  3  4  2  0
  3  7  1  0
  4  5  1  0
  5  6  2  0
  5  8  1  0
  6 26  1  0
  7 12  2  0
  7 15  1  0
  8  9  1  6
  8 10  2  0
  8 11  2  0
 18  9  1  1
 12 13  1  0
 12 17  1  0
 13 14  1  0
 14 15  2  0
 15 16  1  0
 18 19  1  0
 18 22  1  0
 19 20  1  0
 20 21  1  0
 21 22  1  0
 23 24  2  0
 24 25  1  0
 25 26  2  0
M  END
$$$$
