
     RDKit          3D

 26 29  0  0  0  0  0  0  0  0999 V2000
   95.6120   10.5849   44.5101 C   0  0  0  0  0  0  0  0  0  0  0  0
   94.7621    9.8117   43.7522 C   0  0  0  0  0  0  0  0  0  0  0  0
   93.3990    9.9275   43.7924 C   0  0  0  0  0  0  0  0  0  0  0  0
   92.8530   10.8908   44.6581 C   0  0  0  0  0  0  0  0  0  0  0  0
   93.6642   11.6763   45.4267 C   0  0  0  0  0  0  0  0  0  0  0  0
   95.0595   11.5231   45.3525 C   0  0  0  0  0  0  0  0  0  0  0  0
   92.5327    9.0908   42.9751 C   0  0  0  0  0  0  0  0  0  0  0  0
   92.9911   12.8577   46.4971 S   0  0  2  0  0  6  0  0  0  0  0  0
   93.5549   14.3892   46.2147 N   0  0  0  0  0  0  0  0  0  0  0  0
   93.4164   12.3736   47.8909 O   0  0  0  0  0  0  0  0  0  0  0  0
   91.4778   12.7629   46.5579 O   0  0  0  0  0  0  0  0  0  0  0  0
   91.4584    8.3881   43.4661 C   0  0  0  0  0  0  0  0  0  0  0  0
   90.8853    7.7307   42.4594 O   0  0  0  0  0  0  0  0  0  0  0  0
   91.5367    7.9788   41.3618 N   0  0  0  0  0  0  0  0  0  0  0  0
   92.5761    8.8229   41.6239 C   0  0  0  0  0  0  0  0  0  0  0  0
   93.5748    9.3717   40.6989 C   0  0  0  0  0  0  0  0  0  0  0  0
   90.9343    8.2987   44.8432 C   0  0  0  0  0  0  0  0  0  0  0  0
   93.0019   15.2365   45.2451 C   0  0  1  0  0  0  0  0  0  0  0  0
   93.1527   16.7232   45.6661 C   0  0  0  0  0  0  0  0  0  0  0  0
   94.4913   17.1394   45.1215 C   0  0  0  0  0  0  0  0  0  0  0  0
   94.6681   16.3403   43.8529 C   0  0  0  0  0  0  0  0  0  0  0  0
   93.7644   15.1564   43.9517 C   0  0  0  0  0  0  0  0  0  0  0  0
   96.9662   10.4179   44.4161 N   0  0  0  0  0  0  0  0  0  0  0  0
   97.8241   11.1592   45.1382 C   0  0  0  0  0  0  0  0  0  0  0  0
   97.2820   12.0952   45.9781 C   0  0  0  0  0  0  0  0  0  0  0  0
   95.9156   12.3015   46.1082 C   0  0  0  0  0  0  0  0  0  0  0  0
  1  2  2  0
  1  6  1  0
  1 23  1  0
  2  3  1  0
  3  4  2  0
  3  7  1  0
  4  5  1  0
  5  6  2  0
  5  8  1  0
  6 26  1  0
  7 12  2  0
  7 15  1  0
  8  9  1  6
  8 10  2  0
  8 11  2  0
 18  9  1  1
 12 13  1  0
 12 17  1  0
 13 14  1  0
 14 15  2  0
 15 16  1  0
 18 19  1  0
 18 22  1  0
 19 20  1  0
 20 21  1  0
 21 22  1  0
 23 24  2  0
 24 25  1  0
 25 26  2  0
M  END
$$$$
