
     RDKit          3D

 26 29  0  0  0  0  0  0  0  0999 V2000
   95.7706   10.9672   44.4952 C   0  0  0  0  0  0  0  0  0  0  0  0
   94.8633   10.2417   43.7567 C   0  0  0  0  0  0  0  0  0  0  0  0
   93.5122   10.2821   43.9705 C   0  0  0  0  0  0  0  0  0  0  0  0
   93.0412   11.1125   45.0022 C   0  0  0  0  0  0  0  0  0  0  0  0
   93.9108   11.8470   45.7572 C   0  0  0  0  0  0  0  0  0  0  0  0
   95.2912   11.7749   45.5015 C   0  0  0  0  0  0  0  0  0  0  0  0
   92.5837    9.4996   43.1680 C   0  0  0  0  0  0  0  0  0  0  0  0
   93.3309   12.8643   47.0313 S   0  0  2  0  0  6  0  0  0  0  0  0
   93.5072   14.4790   46.7074 N   0  0  0  0  0  0  0  0  0  0  0  0
   94.1855   12.4591   48.2410 O   0  0  0  0  0  0  0  0  0  0  0  0
   91.9301   12.4756   47.4666 O   0  0  0  0  0  0  0  0  0  0  0  0
   91.2515    9.3444   43.4683 C   0  0  0  0  0  0  0  0  0  0  0  0
   90.6933    8.5740   42.5362 O   0  0  0  0  0  0  0  0  0  0  0  0
   91.5973    8.2346   41.6653 N   0  0  0  0  0  0  0  0  0  0  0  0
   92.7976    8.7843   42.0095 C   0  0  0  0  0  0  0  0  0  0  0  0
   94.0924    8.6745   41.3270 C   0  0  0  0  0  0  0  0  0  0  0  0
   90.4650    9.8853   44.5942 C   0  0  0  0  0  0  0  0  0  0  0  0
   93.8555   14.9670   45.4407 C   0  0  1  0  0  0  0  0  0  0  0  0
   92.6183   14.9901   44.5031 C   0  0  0  0  0  0  0  0  0  0  0  0
   91.9881   16.3353   44.7372 C   0  0  0  0  0  0  0  0  0  0  0  0
   93.1380   17.2618   45.0511 C   0  0  0  0  0  0  0  0  0  0  0  0
   94.2749   16.4093   45.5081 C   0  0  0  0  0  0  0  0  0  0  0  0
   97.1081   10.8815   44.2232 N   0  0  0  0  0  0  0  0  0  0  0  0
   98.0202   11.5797   44.9217 C   0  0  0  0  0  0  0  0  0  0  0  0
   97.5509   12.3861   45.9241 C   0  0  0  0  0  0  0  0  0  0  0  0
   96.2041   12.5061   46.2377 C   0  0  0  0  0  0  0  0  0  0  0  0
  1  2  2  0
  1  6  1  0
  1 23  1  0
  2  3  1  0
  3  4  2  0
  3  7  1  0
  4  5  1  0
  5  6  2  0
  5  8  1  0
  6 26  1  0
  7 12  2  0
  7 15  1  0
  8  9  1  6
  8 10  2  0
  8 11  2  0
 18  9  1  1
 12 13  1  0
 12 17  1  0
 13 14  1  0
 14 15  2  0
 15 16  1  0
 18 19  1  0
 18 22  1  0
 19 20  1  0
 20 21  1  0
 21 22  1  0
 23 24  2  0
 24 25  1  0
 25 26  2  0
M  END
$$$$
