
     RDKit          3D

 26 29  0  0  0  0  0  0  0  0999 V2000
   95.4626   10.9580   44.9409 C   0  0  0  0  0  0  0  0  0  0  0  0
   94.6661   10.0955   44.2223 C   0  0  0  0  0  0  0  0  0  0  0  0
   93.3389   10.3219   43.9764 C   0  0  0  0  0  0  0  0  0  0  0  0
   92.7737   11.5013   44.4914 C   0  0  0  0  0  0  0  0  0  0  0  0
   93.5320   12.3812   45.2101 C   0  0  0  0  0  0  0  0  0  0  0  0
   94.8919   12.1080   45.4377 C   0  0  0  0  0  0  0  0  0  0  0  0
   92.5287    9.3853   43.2117 C   0  0  0  0  0  0  0  0  0  0  0  0
   92.8340   13.8299   45.8493 S   0  0  2  0  0  6  0  0  0  0  0  0
   92.2274   13.6413   47.3789 N   0  0  0  0  0  0  0  0  0  0  0  0
   91.7087   14.1621   44.8586 O   0  0  0  0  0  0  0  0  0  0  0  0
   93.7692   15.0159   45.7024 O   0  0  0  0  0  0  0  0  0  0  0  0
   91.2731    8.9717   43.5877 C   0  0  0  0  0  0  0  0  0  0  0  0
   90.8148    8.1201   42.6717 O   0  0  0  0  0  0  0  0  0  0  0  0
   91.7097    7.9733   41.7398 N   0  0  0  0  0  0  0  0  0  0  0  0
   92.8015    8.7401   42.0248 C   0  0  0  0  0  0  0  0  0  0  0  0
   94.0470    8.8915   41.2631 C   0  0  0  0  0  0  0  0  0  0  0  0
   90.4709    9.3356   44.7721 C   0  0  0  0  0  0  0  0  0  0  0  0
   92.7735   12.7460   48.3085 C   0  0  1  0  0  0  0  0  0  0  0  0
   92.4365   13.1878   49.7581 C   0  0  0  0  0  0  0  0  0  0  0  0
   91.1148   12.5359   50.0575 C   0  0  0  0  0  0  0  0  0  0  0  0
   91.1306   11.2375   49.2874 C   0  0  0  0  0  0  0  0  0  0  0  0
   92.1380   11.3879   48.1962 C   0  0  0  0  0  0  0  0  0  0  0  0
   96.7840   10.6699   45.1447 N   0  0  0  0  0  0  0  0  0  0  0  0
   97.5906   11.4924   45.8375 C   0  0  0  0  0  0  0  0  0  0  0  0
   97.0303   12.6389   46.3344 C   0  0  0  0  0  0  0  0  0  0  0  0
   95.6955   12.9745   46.1542 C   0  0  0  0  0  0  0  0  0  0  0  0
  1  2  2  0
  1  6  1  0
  1 23  1  0
  2  3  1  0
  3  4  2  0
  3  7  1  0
  4  5  1  0
  5  6  2  0
  5  8  1  0
  6 26  1  0
  7 12  2  0
  7 15  1  0
  8  9  1  1
  8 10  2  0
  8 11  2  0
 18  9  1  6
 12 13  1  0
 12 17  1  0
 13 14  1  0
 14 15  2  0
 15 16  1  0
 18 19  1  0
 18 22  1  0
 19 20  1  0
 20 21  1  0
 21 22  1  0
 23 24  2  0
 24 25  1  0
 25 26  2  0
M  END
$$$$
