
     RDKit          3D

 26 29  0  0  0  0  0  0  0  0999 V2000
   96.2325   10.4589   44.8128 C   0  0  0  0  0  0  0  0  0  0  0  0
   95.1776    9.8536   44.1680 C   0  0  0  0  0  0  0  0  0  0  0  0
   93.8689   10.1943   44.3786 C   0  0  0  0  0  0  0  0  0  0  0  0
   93.6038   11.2176   45.3050 C   0  0  0  0  0  0  0  0  0  0  0  0
   94.6241   11.8411   45.9651 C   0  0  0  0  0  0  0  0  0  0  0  0
   95.9539   11.4590   45.7168 C   0  0  0  0  0  0  0  0  0  0  0  0
   92.7801    9.5305   43.6770 C   0  0  0  0  0  0  0  0  0  0  0  0
   94.2967   13.0965   47.1103 S   0  0  2  0  0  6  0  0  0  0  0  0
   93.2078   14.2152   46.5573 N   0  0  0  0  0  0  0  0  0  0  0  0
   95.6683   13.7465   47.3432 O   0  0  0  0  0  0  0  0  0  0  0  0
   93.9570   12.5341   48.4782 O   0  0  0  0  0  0  0  0  0  0  0  0
   92.7258    9.3789   42.3121 C   0  0  0  0  0  0  0  0  0  0  0  0
   91.6038    8.7319   42.0012 O   0  0  0  0  0  0  0  0  0  0  0  0
   90.9477    8.4668   43.0921 N   0  0  0  0  0  0  0  0  0  0  0  0
   91.6353    8.9424   44.1702 C   0  0  0  0  0  0  0  0  0  0  0  0
   91.2821    8.8743   45.5932 C   0  0  0  0  0  0  0  0  0  0  0  0
   93.6794    9.8126   41.2721 C   0  0  0  0  0  0  0  0  0  0  0  0
   91.8231   14.0000   46.5709 C   0  0  1  0  0  0  0  0  0  0  0  0
   91.0614   15.3422   46.7403 C   0  0  0  0  0  0  0  0  0  0  0  0
   90.8674   15.8498   45.3381 C   0  0  0  0  0  0  0  0  0  0  0  0
   90.7228   14.6121   44.4858 C   0  0  0  0  0  0  0  0  0  0  0  0
   91.3382   13.4836   45.2446 C   0  0  0  0  0  0  0  0  0  0  0  0
   97.5172   10.0703   44.5499 N   0  0  0  0  0  0  0  0  0  0  0  0
   98.5701   10.6434   45.1583 C   0  0  0  0  0  0  0  0  0  0  0  0
   98.3010   11.6396   46.0585 C   0  0  0  0  0  0  0  0  0  0  0  0
   97.0154   12.0683   46.3586 C   0  0  0  0  0  0  0  0  0  0  0  0
  1  2  2  0
  1  6  1  0
  1 23  1  0
  2  3  1  0
  3  4  2  0
  3  7  1  0
  4  5  1  0
  5  6  2  0
  5  8  1  0
  6 26  1  0
  7 12  2  0
  7 15  1  0
  8  9  1  6
  8 10  2  0
  8 11  2  0
 18  9  1  6
 12 13  1  0
 12 17  1  0
 13 14  1  0
 14 15  2  0
 15 16  1  0
 18 19  1  0
 18 22  1  0
 19 20  1  0
 20 21  1  0
 21 22  1  0
 23 24  2  0
 24 25  1  0
 25 26  2  0
M  END
$$$$
