
     RDKit          3D

 26 29  0  0  0  0  0  0  0  0999 V2000
   95.6442   10.3009   44.7398 C   0  0  0  0  0  0  0  0  0  0  0  0
   94.7353    9.5806   43.9983 C   0  0  0  0  0  0  0  0  0  0  0  0
   93.4484    9.9905   43.7770 C   0  0  0  0  0  0  0  0  0  0  0  0
   93.0484   11.2132   44.3433 C   0  0  0  0  0  0  0  0  0  0  0  0
   93.9218   11.9558   45.0860 C   0  0  0  0  0  0  0  0  0  0  0  0
   95.2349   11.4960   45.2868 C   0  0  0  0  0  0  0  0  0  0  0  0
   92.5158    9.2004   42.9869 C   0  0  0  0  0  0  0  0  0  0  0  0
   93.4269   13.4580   45.7881 S   0  0  2  0  0  6  0  0  0  0  0  0
   92.3315   13.2736   47.0166 N   0  0  0  0  0  0  0  0  0  0  0  0
   92.7984   14.2218   44.6135 O   0  0  0  0  0  0  0  0  0  0  0  0
   94.6168   14.3264   46.1527 O   0  0  0  0  0  0  0  0  0  0  0  0
   91.3547    8.6590   43.4847 C   0  0  0  0  0  0  0  0  0  0  0  0
   90.7391    8.0002   42.5042 O   0  0  0  0  0  0  0  0  0  0  0  0
   91.4456    8.0955   41.4168 N   0  0  0  0  0  0  0  0  0  0  0  0
   92.5667    8.8343   41.6592 C   0  0  0  0  0  0  0  0  0  0  0  0
   93.6475    9.2009   40.7363 C   0  0  0  0  0  0  0  0  0  0  0  0
   90.7849    8.7265   44.8447 C   0  0  0  0  0  0  0  0  0  0  0  0
   92.5826   12.4850   48.1475 C   0  0  1  0  0  0  0  0  0  0  0  0
   92.5113   13.3420   49.4401 C   0  0  0  0  0  0  0  0  0  0  0  0
   91.0654   13.2924   49.8507 C   0  0  0  0  0  0  0  0  0  0  0  0
   90.5764   11.9326   49.4136 C   0  0  0  0  0  0  0  0  0  0  0  0
   91.5042   11.4562   48.3456 C   0  0  0  0  0  0  0  0  0  0  0  0
   96.9169    9.8324   44.9167 N   0  0  0  0  0  0  0  0  0  0  0  0
   97.8303   10.5127   45.6308 C   0  0  0  0  0  0  0  0  0  0  0  0
   97.4307   11.7029   46.1777 C   0  0  0  0  0  0  0  0  0  0  0  0
   96.1513   12.2194   46.0262 C   0  0  0  0  0  0  0  0  0  0  0  0
  1  2  2  0
  1  6  1  0
  1 23  1  0
  2  3  1  0
  3  4  2  0
  3  7  1  0
  4  5  1  0
  5  6  2  0
  5  8  1  0
  6 26  1  0
  7 12  2  0
  7 15  1  0
  8  9  1  1
  8 10  2  0
  8 11  2  0
 18  9  1  6
 12 13  1  0
 12 17  1  0
 13 14  1  0
 14 15  2  0
 15 16  1  0
 18 19  1  0
 18 22  1  0
 19 20  1  0
 20 21  1  0
 21 22  1  0
 23 24  2  0
 24 25  1  0
 25 26  2  0
M  END
$$$$
