
     RDKit          3D

 26 29  0  0  0  0  0  0  0  0999 V2000
   95.5926   10.4542   44.8822 C   0  0  0  0  0  0  0  0  0  0  0  0
   94.7751    9.6422   44.1291 C   0  0  0  0  0  0  0  0  0  0  0  0
   93.4602    9.9235   43.8743 C   0  0  0  0  0  0  0  0  0  0  0  0
   92.9308   11.1071   44.4170 C   0  0  0  0  0  0  0  0  0  0  0  0
   93.7107   11.9378   45.1703 C   0  0  0  0  0  0  0  0  0  0  0  0
   95.0570   11.6092   45.4058 C   0  0  0  0  0  0  0  0  0  0  0  0
   92.6270    9.0393   43.0727 C   0  0  0  0  0  0  0  0  0  0  0  0
   93.0568   13.3916   45.8435 S   0  0  2  0  0  6  0  0  0  0  0  0
   92.6558   13.2459   47.4438 N   0  0  0  0  0  0  0  0  0  0  0  0
   91.8051   13.6575   44.9946 O   0  0  0  0  0  0  0  0  0  0  0  0
   93.9298   14.5944   45.5371 O   0  0  0  0  0  0  0  0  0  0  0  0
   91.4696    8.4540   43.5276 C   0  0  0  0  0  0  0  0  0  0  0  0
   90.9569    7.7104   42.5486 O   0  0  0  0  0  0  0  0  0  0  0  0
   91.7248    7.7936   41.5025 N   0  0  0  0  0  0  0  0  0  0  0  0
   92.7836    8.6106   41.7723 C   0  0  0  0  0  0  0  0  0  0  0  0
   93.8982    8.9954   40.8983 C   0  0  0  0  0  0  0  0  0  0  0  0
   90.8112    8.5551   44.8449 C   0  0  0  0  0  0  0  0  0  0  0  0
   92.1244   12.0701   47.9907 C   0  0  1  0  0  0  0  0  0  0  0  0
   93.2299   11.2526   48.7116 C   0  0  0  0  0  0  0  0  0  0  0  0
   93.2397   11.7832   50.1187 C   0  0  0  0  0  0  0  0  0  0  0  0
   91.8098   12.1749   50.4038 C   0  0  0  0  0  0  0  0  0  0  0  0
   91.1393   12.3741   49.0851 C   0  0  0  0  0  0  0  0  0  0  0  0
   96.9001   10.1128   45.0931 N   0  0  0  0  0  0  0  0  0  0  0  0
   97.7265   10.8852   45.8194 C   0  0  0  0  0  0  0  0  0  0  0  0
   97.2012   12.0363   46.3432 C   0  0  0  0  0  0  0  0  0  0  0  0
   95.8817   12.4249   46.1571 C   0  0  0  0  0  0  0  0  0  0  0  0
  1  2  2  0
  1  6  1  0
  1 23  1  0
  2  3  1  0
  3  4  2  0
  3  7  1  0
  4  5  1  0
  5  6  2  0
  5  8  1  0
  6 26  1  0
  7 12  2  0
  7 15  1  0
  8  9  1  1
  8 10  2  0
  8 11  2  0
 18  9  1  1
 12 13  1  0
 12 17  1  0
 13 14  1  0
 14 15  2  0
 15 16  1  0
 18 19  1  0
 18 22  1  0
 19 20  1  0
 20 21  1  0
 21 22  1  0
 23 24  2  0
 24 25  1  0
 25 26  2  0
M  END
$$$$
