
     RDKit          3D

 26 29  0  0  0  0  0  0  0  0999 V2000
   95.9346   11.1575   44.4246 C   0  0  0  0  0  0  0  0  0  0  0  0
   95.0599   10.3334   43.7533 C   0  0  0  0  0  0  0  0  0  0  0  0
   93.7687   10.1184   44.1527 C   0  0  0  0  0  0  0  0  0  0  0  0
   93.3270   10.7806   45.3112 C   0  0  0  0  0  0  0  0  0  0  0  0
   94.1660   11.6058   46.0046 C   0  0  0  0  0  0  0  0  0  0  0  0
   95.4847   11.7977   45.5572 C   0  0  0  0  0  0  0  0  0  0  0  0
   92.8732    9.2388   43.4160 C   0  0  0  0  0  0  0  0  0  0  0  0
   93.6236   12.4158   47.4343 S   0  0  2  0  0  6  0  0  0  0  0  0
   93.0566   13.9443   47.1420 N   0  0  0  0  0  0  0  0  0  0  0  0
   94.8739   12.4641   48.3245 O   0  0  0  0  0  0  0  0  0  0  0  0
   92.6718   11.5528   48.2418 O   0  0  0  0  0  0  0  0  0  0  0  0
   91.5031    9.2785   43.5174 C   0  0  0  0  0  0  0  0  0  0  0  0
   90.9910    8.3462   42.7157 O   0  0  0  0  0  0  0  0  0  0  0  0
   91.9598    7.7211   42.1145 N   0  0  0  0  0  0  0  0  0  0  0  0
   93.1583    8.2367   42.5137 C   0  0  0  0  0  0  0  0  0  0  0  0
   94.5127    7.8477   42.1034 C   0  0  0  0  0  0  0  0  0  0  0  0
   90.6386   10.1527   44.3342 C   0  0  0  0  0  0  0  0  0  0  0  0
   93.6750   14.8263   46.2456 C   0  0  1  0  0  0  0  0  0  0  0  0
   93.2687   14.4964   44.7839 C   0  0  0  0  0  0  0  0  0  0  0  0
   92.0158   15.2938   44.5476 C   0  0  0  0  0  0  0  0  0  0  0  0
   92.1784   16.5424   45.3805 C   0  0  0  0  0  0  0  0  0  0  0  0
   93.1843   16.2343   46.4395 C   0  0  0  0  0  0  0  0  0  0  0  0
   97.2114   11.3296   43.9656 N   0  0  0  0  0  0  0  0  0  0  0  0
   98.0892   12.1304   44.5943 C   0  0  0  0  0  0  0  0  0  0  0  0
   97.6488   12.7714   45.7214 C   0  0  0  0  0  0  0  0  0  0  0  0
   96.3636   12.6285   46.2259 C   0  0  0  0  0  0  0  0  0  0  0  0
  1  2  2  0
  1  6  1  0
  1 23  1  0
  2  3  1  0
  3  4  2  0
  3  7  1  0
  4  5  1  0
  5  6  2  0
  5  8  1  0
  6 26  1  0
  7 12  2  0
  7 15  1  0
  8  9  1  6
  8 10  2  0
  8 11  2  0
 18  9  1  1
 12 13  1  0
 12 17  1  0
 13 14  1  0
 14 15  2  0
 15 16  1  0
 18 19  1  0
 18 22  1  0
 19 20  1  0
 20 21  1  0
 21 22  1  0
 23 24  2  0
 24 25  1  0
 25 26  2  0
M  END
$$$$
