
     RDKit          3D

 26 29  0  0  0  0  0  0  0  0999 V2000
   95.8463   10.6851   44.5247 C   0  0  0  0  0  0  0  0  0  0  0  0
   94.9566    9.9289   43.7956 C   0  0  0  0  0  0  0  0  0  0  0  0
   93.6027    9.9569   43.9944 C   0  0  0  0  0  0  0  0  0  0  0  0
   93.1100   10.8069   44.9995 C   0  0  0  0  0  0  0  0  0  0  0  0
   93.9618   11.5719   45.7443 C   0  0  0  0  0  0  0  0  0  0  0  0
   95.3457   11.5117   45.5050 C   0  0  0  0  0  0  0  0  0  0  0  0
   92.6932    9.1418   43.2025 C   0  0  0  0  0  0  0  0  0  0  0  0
   93.3551   12.6135   46.9859 S   0  0  2  0  0  6  0  0  0  0  0  0
   93.6072   14.2197   46.6699 N   0  0  0  0  0  0  0  0  0  0  0  0
   94.1308   12.1807   48.2384 O   0  0  0  0  0  0  0  0  0  0  0  0
   91.9204   12.2778   47.3489 O   0  0  0  0  0  0  0  0  0  0  0  0
   92.9768    8.6826   41.9385 C   0  0  0  0  0  0  0  0  0  0  0  0
   91.9378    7.9727   41.5019 O   0  0  0  0  0  0  0  0  0  0  0  0
   91.0155    7.9580   42.4184 N   0  0  0  0  0  0  0  0  0  0  0  0
   91.4328    8.6724   43.5032 C   0  0  0  0  0  0  0  0  0  0  0  0
   90.7296    8.9277   44.7660 C   0  0  0  0  0  0  0  0  0  0  0  0
   94.1823    8.8755   41.1088 C   0  0  0  0  0  0  0  0  0  0  0  0
   92.9205   14.9140   45.6648 C   0  0  1  0  0  0  0  0  0  0  0  0
   92.9211   16.4393   45.9540 C   0  0  0  0  0  0  0  0  0  0  0  0
   94.1793   16.9492   45.3070 C   0  0  0  0  0  0  0  0  0  0  0  0
   94.3896   16.0664   44.1006 C   0  0  0  0  0  0  0  0  0  0  0  0
   93.6301   14.8045   44.3438 C   0  0  0  0  0  0  0  0  0  0  0  0
   97.1877   10.6103   44.2688 N   0  0  0  0  0  0  0  0  0  0  0  0
   98.0830   11.3381   44.9587 C   0  0  0  0  0  0  0  0  0  0  0  0
   97.5925   12.1635   45.9352 C   0  0  0  0  0  0  0  0  0  0  0  0
   96.2410   12.2735   46.2316 C   0  0  0  0  0  0  0  0  0  0  0  0
  1  2  2  0
  1  6  1  0
  1 23  1  0
  2  3  1  0
  3  4  2  0
  3  7  1  0
  4  5  1  0
  5  6  2  0
  5  8  1  0
  6 26  1  0
  7 12  2  0
  7 15  1  0
  8  9  1  6
  8 10  2  0
  8 11  2  0
 18  9  1  1
 12 13  1  0
 12 17  1  0
 13 14  1  0
 14 15  2  0
 15 16  1  0
 18 19  1  0
 18 22  1  0
 19 20  1  0
 20 21  1  0
 21 22  1  0
 23 24  2  0
 24 25  1  0
 25 26  2  0
M  END
$$$$
