
     RDKit          3D

 26 29  0  0  0  0  0  0  0  0999 V2000
   95.9335   10.5240   44.5451 C   0  0  0  0  0  0  0  0  0  0  0  0
   95.0238    9.8087   43.7997 C   0  0  0  0  0  0  0  0  0  0  0  0
   93.6682    9.9406   43.9342 C   0  0  0  0  0  0  0  0  0  0  0  0
   93.1952   10.8585   44.8878 C   0  0  0  0  0  0  0  0  0  0  0  0
   94.0671   11.5859   45.6469 C   0  0  0  0  0  0  0  0  0  0  0  0
   95.4520   11.4182   45.4743 C   0  0  0  0  0  0  0  0  0  0  0  0
   92.7373    9.1657   43.1270 C   0  0  0  0  0  0  0  0  0  0  0  0
   93.4841   12.7111   46.8253 S   0  0  2  0  0  6  0  0  0  0  0  0
   92.9775   14.1429   46.1645 N   0  0  0  0  0  0  0  0  0  0  0  0
   94.6929   12.9378   47.7446 O   0  0  0  0  0  0  0  0  0  0  0  0
   92.4705   12.0734   47.7574 O   0  0  0  0  0  0  0  0  0  0  0  0
   91.6040    8.5678   43.6240 C   0  0  0  0  0  0  0  0  0  0  0  0
   90.9816    7.9425   42.6261 O   0  0  0  0  0  0  0  0  0  0  0  0
   91.6577    8.1122   41.5284 N   0  0  0  0  0  0  0  0  0  0  0  0
   92.7645    8.8687   41.7815 C   0  0  0  0  0  0  0  0  0  0  0  0
   93.8116    9.3114   40.8531 C   0  0  0  0  0  0  0  0  0  0  0  0
   91.0671    8.5507   44.9989 C   0  0  0  0  0  0  0  0  0  0  0  0
   93.0897   14.4315   44.7977 C   0  0  1  0  0  0  0  0  0  0  0  0
   92.2317   15.6713   44.4272 C   0  0  0  0  0  0  0  0  0  0  0  0
   93.1446   16.8459   44.6475 C   0  0  0  0  0  0  0  0  0  0  0  0
   94.5284   16.3383   44.3208 C   0  0  0  0  0  0  0  0  0  0  0  0
   94.4890   14.8510   44.4417 C   0  0  0  0  0  0  0  0  0  0  0  0
   97.2758   10.3442   44.3545 N   0  0  0  0  0  0  0  0  0  0  0  0
   98.1907   11.0296   45.0619 C   0  0  0  0  0  0  0  0  0  0  0  0
   97.7194   11.9217   45.9879 C   0  0  0  0  0  0  0  0  0  0  0  0
   96.3678   12.1387   46.2174 C   0  0  0  0  0  0  0  0  0  0  0  0
  1  2  2  0
  1  6  1  0
  1 23  1  0
  2  3  1  0
  3  4  2  0
  3  7  1  0
  4  5  1  0
  5  6  2  0
  5  8  1  0
  6 26  1  0
  7 12  2  0
  7 15  1  0
  8  9  1  6
  8 10  2  0
  8 11  2  0
 18  9  1  1
 12 13  1  0
 12 17  1  0
 13 14  1  0
 14 15  2  0
 15 16  1  0
 18 19  1  0
 18 22  1  0
 19 20  1  0
 20 21  1  0
 21 22  1  0
 23 24  2  0
 24 25  1  0
 25 26  2  0
M  END
$$$$
