
     RDKit          3D

 26 29  0  0  0  0  0  0  0  0999 V2000
   96.0330   10.4311   44.7066 C   0  0  0  0  0  0  0  0  0  0  0  0
   94.9741    9.8704   44.0289 C   0  0  0  0  0  0  0  0  0  0  0  0
   93.6702   10.2315   44.2351 C   0  0  0  0  0  0  0  0  0  0  0  0
   93.4145   11.2283   45.1925 C   0  0  0  0  0  0  0  0  0  0  0  0
   94.4391   11.8075   45.8857 C   0  0  0  0  0  0  0  0  0  0  0  0
   95.7636   11.4058   45.6406 C   0  0  0  0  0  0  0  0  0  0  0  0
   92.5768    9.6149   43.4983 C   0  0  0  0  0  0  0  0  0  0  0  0
   94.1232   13.0302   47.0689 S   0  0  2  0  0  6  0  0  0  0  0  0
   92.7053   13.8438   46.8027 N   0  0  0  0  0  0  0  0  0  0  0  0
   95.3232   13.9800   46.9432 O   0  0  0  0  0  0  0  0  0  0  0  0
   94.2673   12.4951   48.4815 O   0  0  0  0  0  0  0  0  0  0  0  0
   91.3985    9.2040   44.0744 C   0  0  0  0  0  0  0  0  0  0  0  0
   90.6201    8.6863   43.1255 O   0  0  0  0  0  0  0  0  0  0  0  0
   91.2403    8.7474   41.9843 N   0  0  0  0  0  0  0  0  0  0  0  0
   92.4673    9.3184   42.1568 C   0  0  0  0  0  0  0  0  0  0  0  0
   93.5074    9.5901   41.1575 C   0  0  0  0  0  0  0  0  0  0  0  0
   90.9580    9.2712   45.4816 C   0  0  0  0  0  0  0  0  0  0  0  0
   92.4931   14.6549   45.6798 C   0  0  1  0  0  0  0  0  0  0  0  0
   91.6695   13.8969   44.6040 C   0  0  0  0  0  0  0  0  0  0  0  0
   90.2344   14.1792   44.9540 C   0  0  0  0  0  0  0  0  0  0  0  0
   90.2380   15.5663   45.5499 C   0  0  0  0  0  0  0  0  0  0  0  0
   91.6294   15.8385   46.0171 C   0  0  0  0  0  0  0  0  0  0  0  0
   97.3125   10.0245   44.4462 N   0  0  0  0  0  0  0  0  0  0  0  0
   98.3693   10.5544   45.0863 C   0  0  0  0  0  0  0  0  0  0  0  0
   98.1094   11.5251   46.0166 C   0  0  0  0  0  0  0  0  0  0  0  0
   96.8292   11.9705   46.3155 C   0  0  0  0  0  0  0  0  0  0  0  0
  1  2  2  0
  1  6  1  0
  1 23  1  0
  2  3  1  0
  3  4  2  0
  3  7  1  0
  4  5  1  0
  5  6  2  0
  5  8  1  0
  6 26  1  0
  7 12  2  0
  7 15  1  0
  8  9  1  1
  8 10  2  0
  8 11  2  0
 18  9  1  1
 12 13  1  0
 12 17  1  0
 13 14  1  0
 14 15  2  0
 15 16  1  0
 18 19  1  0
 18 22  1  0
 19 20  1  0
 20 21  1  0
 21 22  1  0
 23 24  2  0
 24 25  1  0
 25 26  2  0
M  END
$$$$
