
     RDKit          3D

 26 29  0  0  0  0  0  0  0  0999 V2000
   93.4706   13.2814   44.0553 C   0  0  0  0  0  0  0  0  0  0  0  0
   92.9063   12.1055   43.6149 C   0  0  0  0  0  0  0  0  0  0  0  0
   93.3178   10.8686   44.0319 C   0  0  0  0  0  0  0  0  0  0  0  0
   94.3732   10.8121   44.9586 C   0  0  0  0  0  0  0  0  0  0  0  0
   94.9589   11.9573   45.4181 C   0  0  0  0  0  0  0  0  0  0  0  0
   94.5032   13.2066   44.9626 C   0  0  0  0  0  0  0  0  0  0  0  0
   92.6958    9.6470   43.5429 C   0  0  0  0  0  0  0  0  0  0  0  0
   96.2624   11.8868   46.5541 S   0  0  2  0  0  6  0  0  0  0  0  0
   96.0153   12.8353   47.8891 N   0  0  0  0  0  0  0  0  0  0  0  0
   97.4736   12.3858   45.7530 O   0  0  0  0  0  0  0  0  0  0  0  0
   96.6452   10.4553   46.8813 O   0  0  0  0  0  0  0  0  0  0  0  0
   93.1402    8.9444   42.4484 C   0  0  0  0  0  0  0  0  0  0  0  0
   92.3520    7.8846   42.2758 O   0  0  0  0  0  0  0  0  0  0  0  0
   91.4362    7.8789   43.1989 N   0  0  0  0  0  0  0  0  0  0  0  0
   91.6021    8.9566   44.0188 C   0  0  0  0  0  0  0  0  0  0  0  0
   90.8103    9.3570   45.1881 C   0  0  0  0  0  0  0  0  0  0  0  0
   94.2762    9.2157   41.5458 C   0  0  0  0  0  0  0  0  0  0  0  0
   94.8036   12.8573   48.5928 C   0  0  1  0  0  0  0  0  0  0  0  0
   95.0036   12.3453   50.0447 C   0  0  0  0  0  0  0  0  0  0  0  0
   95.3686   13.5721   50.8343 C   0  0  0  0  0  0  0  0  0  0  0  0
   94.6270   14.7062   50.1687 C   0  0  0  0  0  0  0  0  0  0  0  0
   94.3066   14.2640   48.7794 C   0  0  0  0  0  0  0  0  0  0  0  0
   93.0056   14.4838   43.5988 N   0  0  0  0  0  0  0  0  0  0  0  0
   93.5308   15.6503   44.0118 C   0  0  0  0  0  0  0  0  0  0  0  0
   94.5580   15.5842   44.9150 C   0  0  0  0  0  0  0  0  0  0  0  0
   95.0640   14.3890   45.4069 C   0  0  0  0  0  0  0  0  0  0  0  0
  1  2  2  0
  1  6  1  0
  1 23  1  0
  2  3  1  0
  3  4  2  0
  3  7  1  0
  4  5  1  0
  5  6  2  0
  5  8  1  0
  6 26  1  0
  7 12  2  0
  7 15  1  0
  8  9  1  1
  8 10  2  0
  8 11  2  0
 18  9  1  6
 12 13  1  0
 12 17  1  0
 13 14  1  0
 14 15  2  0
 15 16  1  0
 18 19  1  0
 18 22  1  0
 19 20  1  0
 20 21  1  0
 21 22  1  0
 23 24  2  0
 24 25  1  0
 25 26  2  0
M  END
$$$$
