
     RDKit          3D

 26 29  0  0  0  0  0  0  0  0999 V2000
   95.8177   10.8306   44.5937 C   0  0  0  0  0  0  0  0  0  0  0  0
   94.9816   10.0718   43.8062 C   0  0  0  0  0  0  0  0  0  0  0  0
   93.6164   10.1525   43.8591 C   0  0  0  0  0  0  0  0  0  0  0  0
   93.0531   11.0622   44.7705 C   0  0  0  0  0  0  0  0  0  0  0  0
   93.8502   11.8318   45.5693 C   0  0  0  0  0  0  0  0  0  0  0  0
   95.2482   11.7162   45.4806 C   0  0  0  0  0  0  0  0  0  0  0  0
   92.7651    9.3327   43.0096 C   0  0  0  0  0  0  0  0  0  0  0  0
   93.1560   12.9471   46.6957 S   0  0  2  0  0  6  0  0  0  0  0  0
   93.6574   14.5080   46.4604 N   0  0  0  0  0  0  0  0  0  0  0  0
   93.6267   12.4283   48.0621 O   0  0  0  0  0  0  0  0  0  0  0  0
   91.6487   12.7936   46.7813 O   0  0  0  0  0  0  0  0  0  0  0  0
   91.7106    8.5835   43.4741 C   0  0  0  0  0  0  0  0  0  0  0  0
   91.1471    7.9581   42.4419 O   0  0  0  0  0  0  0  0  0  0  0  0
   91.7859    8.2702   41.3532 N   0  0  0  0  0  0  0  0  0  0  0  0
   92.8067    9.1262   41.6475 C   0  0  0  0  0  0  0  0  0  0  0  0
   93.7866    9.7393   40.7430 C   0  0  0  0  0  0  0  0  0  0  0  0
   91.1971    8.4204   44.8484 C   0  0  0  0  0  0  0  0  0  0  0  0
   93.0714   15.3608   45.5153 C   0  0  1  0  0  0  0  0  0  0  0  0
   93.4977   16.8324   45.7662 C   0  0  0  0  0  0  0  0  0  0  0  0
   94.7690   17.0000   44.9806 C   0  0  0  0  0  0  0  0  0  0  0  0
   94.6143   16.0974   43.7804 C   0  0  0  0  0  0  0  0  0  0  0  0
   93.5842   15.0756   44.1309 C   0  0  0  0  0  0  0  0  0  0  0  0
   97.1748   10.7010   44.4847 N   0  0  0  0  0  0  0  0  0  0  0  0
   98.0194   11.4296   45.2350 C   0  0  0  0  0  0  0  0  0  0  0  0
   97.4605   12.3134   46.1192 C   0  0  0  0  0  0  0  0  0  0  0  0
   96.0903   12.4803   46.2660 C   0  0  0  0  0  0  0  0  0  0  0  0
  1  2  2  0
  1  6  1  0
  1 23  1  0
  2  3  1  0
  3  4  2  0
  3  7  1  0
  4  5  1  0
  5  6  2  0
  5  8  1  0
  6 26  1  0
  7 12  2  0
  7 15  1  0
  8  9  1  6
  8 10  2  0
  8 11  2  0
 18  9  1  1
 12 13  1  0
 12 17  1  0
 13 14  1  0
 14 15  2  0
 15 16  1  0
 18 19  1  0
 18 22  1  0
 19 20  1  0
 20 21  1  0
 21 22  1  0
 23 24  2  0
 24 25  1  0
 25 26  2  0
M  END
$$$$
