
     RDKit          3D

 26 29  0  0  0  0  0  0  0  0999 V2000
   95.9586   10.3450   44.6100 C   0  0  0  0  0  0  0  0  0  0  0  0
   95.0082    9.6894   43.8604 C   0  0  0  0  0  0  0  0  0  0  0  0
   93.6639    9.9161   43.9810 C   0  0  0  0  0  0  0  0  0  0  0  0
   93.2471   10.8713   44.9241 C   0  0  0  0  0  0  0  0  0  0  0  0
   94.1605   11.5418   45.6870 C   0  0  0  0  0  0  0  0  0  0  0  0
   95.5319   11.2771   45.5288 C   0  0  0  0  0  0  0  0  0  0  0  0
   92.6888    9.2022   43.1699 C   0  0  0  0  0  0  0  0  0  0  0  0
   93.6463   12.7131   46.8525 S   0  0  2  0  0  6  0  0  0  0  0  0
   93.2416   14.1702   46.1771 N   0  0  0  0  0  0  0  0  0  0  0  0
   94.8614   12.8655   47.7789 O   0  0  0  0  0  0  0  0  0  0  0  0
   92.5859   12.1523   47.7819 O   0  0  0  0  0  0  0  0  0  0  0  0
   91.5271    8.6604   43.6659 C   0  0  0  0  0  0  0  0  0  0  0  0
   90.8673    8.0814   42.6641 O   0  0  0  0  0  0  0  0  0  0  0  0
   91.5465    8.2273   41.5649 N   0  0  0  0  0  0  0  0  0  0  0  0
   92.6937    8.9199   41.8209 C   0  0  0  0  0  0  0  0  0  0  0  0
   93.7589    9.3164   40.8922 C   0  0  0  0  0  0  0  0  0  0  0  0
   90.9964    8.6562   45.0433 C   0  0  0  0  0  0  0  0  0  0  0  0
   94.1588   14.9642   45.4755 C   0  0  1  0  0  0  0  0  0  0  0  0
   94.1912   14.5681   43.9748 C   0  0  0  0  0  0  0  0  0  0  0  0
   93.1238   15.4123   43.3348 C   0  0  0  0  0  0  0  0  0  0  0  0
   93.1104   16.6989   44.1246 C   0  0  0  0  0  0  0  0  0  0  0  0
   93.7273   16.4043   45.4516 C   0  0  0  0  0  0  0  0  0  0  0  0
   97.2868   10.0711   44.4336 N   0  0  0  0  0  0  0  0  0  0  0  0
   98.2406   10.6962   45.1453 C   0  0  0  0  0  0  0  0  0  0  0  0
   97.8240   11.6254   46.0610 C   0  0  0  0  0  0  0  0  0  0  0  0
   96.4887   11.9374   46.2761 C   0  0  0  0  0  0  0  0  0  0  0  0
  1  2  2  0
  1  6  1  0
  1 23  1  0
  2  3  1  0
  3  4  2  0
  3  7  1  0
  4  5  1  0
  5  6  2  0
  5  8  1  0
  6 26  1  0
  7 12  2  0
  7 15  1  0
  8  9  1  6
  8 10  2  0
  8 11  2  0
 18  9  1  1
 12 13  1  0
 12 17  1  0
 13 14  1  0
 14 15  2  0
 15 16  1  0
 18 19  1  0
 18 22  1  0
 19 20  1  0
 20 21  1  0
 21 22  1  0
 23 24  2  0
 24 25  1  0
 25 26  2  0
M  END
$$$$
