
     RDKit          3D

 30 33  0  0  0  0  0  0  0  0999 V2000
  -29.8424  -46.9506   17.0189 C   0  0  0  0  0  0  0  0  0  0  0  0
  -31.3173  -46.4792   17.0266 C   0  0  0  0  0  0  0  0  0  0  0  0
  -31.4304  -45.4686   15.9917 C   0  0  0  0  0  0  0  0  0  0  0  0
  -32.7187  -44.9294   15.8277 C   0  0  0  0  0  0  0  0  0  0  0  0
  -33.8252  -45.3354   16.6188 C   0  0  0  0  0  0  0  0  0  0  0  0
  -32.3250  -46.8408   17.7367 C   0  0  0  0  0  0  0  0  0  0  0  0
  -37.4115  -45.1931   17.6957 C   0  0  0  0  0  0  0  0  0  0  0  0
  -39.8796  -45.1536   18.8511 C   0  0  0  0  0  0  0  0  0  0  0  0
  -39.8369  -45.2546   17.4139 C   0  0  0  0  0  0  0  0  0  0  0  0
  -38.4586  -45.2385   17.1188 C   0  0  0  0  0  0  0  0  0  0  0  0
  -39.0275  -45.1389   21.1159 C   0  0  2  0  0  0  0  0  0  0  0  0
  -39.4341  -45.2450   23.8168 C   0  0  0  0  0  0  0  0  0  0  0  0
  -41.1535  -43.9986   23.5009 C   0  0  0  0  0  0  0  0  0  0  0  0
  -37.4801  -45.0965   19.1730 C   0  0  0  0  0  0  0  0  0  0  0  0
  -38.7736  -45.0812   19.6546 C   0  0  0  0  0  0  0  0  0  0  0  0
  -40.3237  -45.9644   21.2137 C   0  0  0  0  0  0  0  0  0  0  0  0
  -38.2276  -46.0396   23.3679 C   0  0  0  0  0  0  0  0  0  0  0  0
  -40.3261  -45.3961   24.8972 C   0  0  0  0  0  0  0  0  0  0  0  0
  -41.4413  -44.6352   24.7948 C   0  0  0  0  0  0  0  0  0  0  0  0
  -39.4338  -43.8028   21.7406 C   0  0  0  0  0  0  0  0  0  0  0  0
  -35.2027  -44.9842   16.1880 C   0  0  0  0  0  0  0  0  0  0  0  0
  -41.1626  -45.2163   19.2708 F   0  0  0  0  0  0  0  0  0  0  0  0
  -28.7804  -47.3104   17.0101 N   0  0  0  0  0  0  0  0  0  0  0  0
  -36.1763  -45.2625   17.1600 N   0  0  0  0  0  0  0  0  0  0  0  0
  -37.9712  -45.7285   21.8803 N   0  0  0  0  0  0  0  0  0  0  0  0
  -37.7062  -46.9303   23.8711 N   0  0  0  0  0  0  0  0  0  0  0  0
  -40.0917  -44.3557   23.0097 N   0  0  0  0  0  0  0  0  0  0  0  0
  -33.5093  -46.2616   17.5216 N   0  0  0  0  0  0  0  0  0  0  0  0
  -35.6363  -44.5321   15.1900 O   0  0  0  0  0  0  0  0  0  0  0  0
  -37.5809  -47.9096   23.9404 H   0  0  0  0  0  0  0  0  0  0  0  0
  2  1  1  0
  1 23  3  0
  3  2  2  0
  6  2  1  0
  4  3  1  0
  5  4  2  0
 21  5  1  0
  5 28  1  0
 28  6  2  0
  7 10  2  0
  7 14  1  0
 24  7  1  0
  9  8  2  0
 15  8  1  0
  8 22  1  0
 10  9  1  0
 15 11  1  0
 11 16  1  6
 11 20  1  0
 11 25  1  0
 17 12  1  0
 12 18  2  0
 27 12  1  0
 13 19  2  0
 27 13  1  0
 14 15  2  0
 25 17  1  0
 17 26  2  0
 18 19  1  0
 20 27  1  0
 21 24  1  0
 21 29  2  0
 26 30  1  0
M  END
$$$$
