
     RDKit          3D

 30 33  0  0  0  0  0  0  0  0999 V2000
  -30.0728  -47.1278   17.0642 C   0  0  0  0  0  0  0  0  0  0  0  0
  -31.5342  -46.6160   17.0560 C   0  0  0  0  0  0  0  0  0  0  0  0
  -31.6488  -45.7206   15.9201 C   0  0  0  0  0  0  0  0  0  0  0  0
  -32.9266  -45.1653   15.7293 C   0  0  0  0  0  0  0  0  0  0  0  0
  -34.0215  -45.4510   16.5865 C   0  0  0  0  0  0  0  0  0  0  0  0
  -32.5313  -46.8692   17.8254 C   0  0  0  0  0  0  0  0  0  0  0  0
  -37.5858  -45.1574   17.7080 C   0  0  0  0  0  0  0  0  0  0  0  0
  -40.0746  -45.2514   18.8150 C   0  0  0  0  0  0  0  0  0  0  0  0
  -39.9998  -45.3306   17.3777 C   0  0  0  0  0  0  0  0  0  0  0  0
  -38.6184  -45.2448   17.1100 C   0  0  0  0  0  0  0  0  0  0  0  0
  -39.2674  -45.2271   21.0962 C   0  0  2  0  0  0  0  0  0  0  0  0
  -39.7196  -45.3922   23.7868 C   0  0  0  0  0  0  0  0  0  0  0  0
  -41.4368  -44.1433   23.4684 C   0  0  0  0  0  0  0  0  0  0  0  0
  -37.6871  -45.0844   19.1847 C   0  0  0  0  0  0  0  0  0  0  0  0
  -38.9888  -45.1374   19.6410 C   0  0  0  0  0  0  0  0  0  0  0  0
  -40.5628  -46.0575   21.1540 C   0  0  0  0  0  0  0  0  0  0  0  0
  -38.5035  -46.1741   23.3416 C   0  0  0  0  0  0  0  0  0  0  0  0
  -40.6295  -45.5686   24.8483 C   0  0  0  0  0  0  0  0  0  0  0  0
  -41.7449  -44.8083   24.7432 C   0  0  0  0  0  0  0  0  0  0  0  0
  -39.6880  -43.9056   21.7423 C   0  0  0  0  0  0  0  0  0  0  0  0
  -35.4004  -45.1089   16.1532 C   0  0  0  0  0  0  0  0  0  0  0  0
  -41.3609  -45.3810   19.2086 F   0  0  0  0  0  0  0  0  0  0  0  0
  -29.0086  -47.4810   17.0772 N   0  0  0  0  0  0  0  0  0  0  0  0
  -36.3388  -45.1604   17.1958 N   0  0  0  0  0  0  0  0  0  0  0  0
  -38.2226  -45.8305   21.8656 N   0  0  0  0  0  0  0  0  0  0  0  0
  -37.9884  -47.0742   23.8345 N   0  0  0  0  0  0  0  0  0  0  0  0
  -40.3658  -44.4873   22.9879 N   0  0  0  0  0  0  0  0  0  0  0  0
  -33.7055  -46.2827   17.5770 N   0  0  0  0  0  0  0  0  0  0  0  0
  -35.8598  -44.8170   15.1080 O   0  0  0  0  0  0  0  0  0  0  0  0
  -37.1802  -47.6365   23.9362 H   0  0  0  0  0  0  0  0  0  0  0  0
  2  1  1  0
  1 23  3  0
  3  2  2  0
  6  2  1  0
  4  3  1  0
  5  4  2  0
 21  5  1  0
  5 28  1  0
 28  6  2  0
  7 10  2  0
  7 14  1  0
 24  7  1  0
  9  8  2  0
 15  8  1  0
  8 22  1  0
 10  9  1  0
 15 11  1  0
 11 16  1  6
 11 20  1  0
 11 25  1  0
 17 12  1  0
 12 18  2  0
 27 12  1  0
 13 19  2  0
 27 13  1  0
 14 15  2  0
 25 17  1  0
 17 26  2  0
 18 19  1  0
 20 27  1  0
 21 24  1  0
 21 29  2  0
 26 30  1  0
M  END
$$$$
