
     RDKit          3D

 30 33  0  0  0  0  0  0  0  0999 V2000
  -29.8061  -46.8015   17.0993 C   0  0  0  0  0  0  0  0  0  0  0  0
  -31.3130  -46.4464   17.0731 C   0  0  0  0  0  0  0  0  0  0  0  0
  -31.4573  -45.3377   16.1484 C   0  0  0  0  0  0  0  0  0  0  0  0
  -32.7755  -44.8820   15.9698 C   0  0  0  0  0  0  0  0  0  0  0  0
  -33.8827  -45.4562   16.6478 C   0  0  0  0  0  0  0  0  0  0  0  0
  -32.3215  -46.9601   17.6811 C   0  0  0  0  0  0  0  0  0  0  0  0
  -37.4760  -45.4529   17.6648 C   0  0  0  0  0  0  0  0  0  0  0  0
  -39.9205  -45.4040   18.8693 C   0  0  0  0  0  0  0  0  0  0  0  0
  -39.9061  -45.5406   17.4344 C   0  0  0  0  0  0  0  0  0  0  0  0
  -38.5342  -45.5210   17.1108 C   0  0  0  0  0  0  0  0  0  0  0  0
  -39.0226  -45.3261   21.1151 C   0  0  2  0  0  0  0  0  0  0  0  0
  -39.3734  -45.3701   23.8255 C   0  0  0  0  0  0  0  0  0  0  0  0
  -41.0651  -44.0834   23.5218 C   0  0  0  0  0  0  0  0  0  0  0  0
  -37.5154  -45.3200   19.1403 C   0  0  0  0  0  0  0  0  0  0  0  0
  -38.7990  -45.3029   19.6479 C   0  0  0  0  0  0  0  0  0  0  0  0
  -40.3381  -46.1139   21.2562 C   0  0  0  0  0  0  0  0  0  0  0  0
  -38.1987  -46.2056   23.3667 C   0  0  0  0  0  0  0  0  0  0  0  0
  -40.2456  -45.4764   24.9272 C   0  0  0  0  0  0  0  0  0  0  0  0
  -41.3419  -44.6874   24.8336 C   0  0  0  0  0  0  0  0  0  0  0  0
  -39.3794  -43.9678   21.7221 C   0  0  0  0  0  0  0  0  0  0  0  0
  -35.2614  -45.1637   16.1790 C   0  0  0  0  0  0  0  0  0  0  0  0
  -41.1941  -45.4663   19.3166 F   0  0  0  0  0  0  0  0  0  0  0  0
  -28.7194  -47.0777   17.1154 N   0  0  0  0  0  0  0  0  0  0  0  0
  -36.2514  -45.5259   17.1058 N   0  0  0  0  0  0  0  0  0  0  0  0
  -37.9663  -45.9297   21.8682 N   0  0  0  0  0  0  0  0  0  0  0  0
  -37.6907  -47.1005   23.8760 N   0  0  0  0  0  0  0  0  0  0  0  0
  -40.0242  -44.4785   23.0153 N   0  0  0  0  0  0  0  0  0  0  0  0
  -33.5370  -46.4512   17.4621 N   0  0  0  0  0  0  0  0  0  0  0  0
  -35.6843  -44.7013   15.1811 O   0  0  0  0  0  0  0  0  0  0  0  0
  -37.0922  -47.8859   23.8085 H   0  0  0  0  0  0  0  0  0  0  0  0
  2  1  1  0
  1 23  3  0
  3  2  2  0
  6  2  1  0
  4  3  1  0
  5  4  2  0
 21  5  1  0
  5 28  1  0
 28  6  2  0
  7 10  2  0
  7 14  1  0
 24  7  1  0
  9  8  2  0
 15  8  1  0
  8 22  1  0
 10  9  1  0
 15 11  1  0
 11 16  1  6
 11 20  1  0
 11 25  1  0
 17 12  1  0
 12 18  2  0
 27 12  1  0
 13 19  2  0
 27 13  1  0
 14 15  2  0
 25 17  1  0
 17 26  2  0
 18 19  1  0
 20 27  1  0
 21 24  1  0
 21 29  2  0
 26 30  1  0
M  END
$$$$
