
     RDKit          3D

 30 33  0  0  0  0  0  0  0  0999 V2000
  -30.0176  -42.9704   17.3140 C   0  0  0  0  0  0  0  0  0  0  0  0
  -31.4655  -43.4871   17.1295 C   0  0  0  0  0  0  0  0  0  0  0  0
  -31.3565  -44.8297   16.5906 C   0  0  0  0  0  0  0  0  0  0  0  0
  -32.5827  -45.4829   16.3733 C   0  0  0  0  0  0  0  0  0  0  0  0
  -33.8345  -44.8741   16.6516 C   0  0  0  0  0  0  0  0  0  0  0  0
  -32.6032  -42.9450   17.3792 C   0  0  0  0  0  0  0  0  0  0  0  0
  -37.4296  -44.9396   17.7066 C   0  0  0  0  0  0  0  0  0  0  0  0
  -39.9411  -44.8677   18.7628 C   0  0  0  0  0  0  0  0  0  0  0  0
  -39.8425  -44.9469   17.3270 C   0  0  0  0  0  0  0  0  0  0  0  0
  -38.4533  -44.9544   17.0875 C   0  0  0  0  0  0  0  0  0  0  0  0
  -39.1808  -44.9063   21.0598 C   0  0  2  0  0  0  0  0  0  0  0  0
  -39.6981  -45.0490   23.7400 C   0  0  0  0  0  0  0  0  0  0  0  0
  -41.3312  -43.7000   23.3898 C   0  0  0  0  0  0  0  0  0  0  0  0
  -37.5558  -44.8649   19.1813 C   0  0  0  0  0  0  0  0  0  0  0  0
  -38.8671  -44.8307   19.6110 C   0  0  0  0  0  0  0  0  0  0  0  0
  -40.5240  -45.6586   21.0884 C   0  0  0  0  0  0  0  0  0  0  0  0
  -38.5214  -45.9008   23.3178 C   0  0  0  0  0  0  0  0  0  0  0  0
  -40.6387  -45.1729   24.7819 C   0  0  0  0  0  0  0  0  0  0  0  0
  -41.7047  -44.3477   24.6560 C   0  0  0  0  0  0  0  0  0  0  0  0
  -39.5358  -43.5634   21.7010 C   0  0  0  0  0  0  0  0  0  0  0  0
  -35.0589  -45.7124   16.7176 C   0  0  0  0  0  0  0  0  0  0  0  0
  -41.2410  -44.9108   19.1298 F   0  0  0  0  0  0  0  0  0  0  0  0
  -28.9759  -42.5779   17.4493 N   0  0  0  0  0  0  0  0  0  0  0  0
  -36.1755  -45.0258   17.2196 N   0  0  0  0  0  0  0  0  0  0  0  0
  -38.1899  -45.5719   21.8490 N   0  0  0  0  0  0  0  0  0  0  0  0
  -38.0708  -46.8307   23.8185 N   0  0  0  0  0  0  0  0  0  0  0  0
  -40.2727  -44.1059   22.9305 N   0  0  0  0  0  0  0  0  0  0  0  0
  -33.7184  -43.6354   17.1256 N   0  0  0  0  0  0  0  0  0  0  0  0
  -35.2712  -46.8388   16.4442 O   0  0  0  0  0  0  0  0  0  0  0  0
  -37.2993  -47.2640   24.2618 H   0  0  0  0  0  0  0  0  0  0  0  0
  2  1  1  0
  1 23  3  0
  3  2  2  0
  6  2  1  0
  4  3  1  0
  5  4  2  0
 21  5  1  0
  5 28  1  0
 28  6  2  0
  7 10  2  0
  7 14  1  0
 24  7  1  0
  9  8  2  0
 15  8  1  0
  8 22  1  0
 10  9  1  0
 15 11  1  0
 11 16  1  6
 11 20  1  0
 11 25  1  0
 17 12  1  0
 12 18  2  0
 27 12  1  0
 13 19  2  0
 27 13  1  0
 14 15  2  0
 25 17  1  0
 17 26  2  0
 18 19  1  0
 20 27  1  0
 21 24  1  0
 21 29  2  0
 26 30  1  0
M  END
$$$$
