
     RDKit          3D

 30 33  0  0  0  0  0  0  0  0999 V2000
  -29.8813  -46.9057   17.3879 C   0  0  0  0  0  0  0  0  0  0  0  0
  -31.3937  -46.5926   17.2773 C   0  0  0  0  0  0  0  0  0  0  0  0
  -31.5243  -45.5465   16.2805 C   0  0  0  0  0  0  0  0  0  0  0  0
  -32.8441  -45.1375   16.0195 C   0  0  0  0  0  0  0  0  0  0  0  0
  -33.9654  -45.6983   16.6854 C   0  0  0  0  0  0  0  0  0  0  0  0
  -32.4148  -47.0947   17.8737 C   0  0  0  0  0  0  0  0  0  0  0  0
  -37.5397  -45.3289   17.6556 C   0  0  0  0  0  0  0  0  0  0  0  0
  -40.0158  -45.5555   18.7720 C   0  0  0  0  0  0  0  0  0  0  0  0
  -39.9415  -45.6367   17.3347 C   0  0  0  0  0  0  0  0  0  0  0  0
  -38.5679  -45.4758   17.0618 C   0  0  0  0  0  0  0  0  0  0  0  0
  -39.2036  -45.4769   21.0501 C   0  0  2  0  0  0  0  0  0  0  0  0
  -39.6369  -45.6601   23.7426 C   0  0  0  0  0  0  0  0  0  0  0  0
  -41.3269  -44.3681   23.4523 C   0  0  0  0  0  0  0  0  0  0  0  0
  -37.6400  -45.2552   19.1324 C   0  0  0  0  0  0  0  0  0  0  0  0
  -38.9352  -45.3781   19.5935 C   0  0  0  0  0  0  0  0  0  0  0  0
  -40.5176  -46.2773   21.1104 C   0  0  0  0  0  0  0  0  0  0  0  0
  -38.4433  -46.4655   23.2787 C   0  0  0  0  0  0  0  0  0  0  0  0
  -40.5417  -45.8265   24.8101 C   0  0  0  0  0  0  0  0  0  0  0  0
  -41.6398  -45.0393   24.7226 C   0  0  0  0  0  0  0  0  0  0  0  0
  -39.5876  -44.1529   21.7137 C   0  0  0  0  0  0  0  0  0  0  0  0
  -35.3293  -45.4713   16.1426 C   0  0  0  0  0  0  0  0  0  0  0  0
  -41.2916  -45.7543   19.1707 F   0  0  0  0  0  0  0  0  0  0  0  0
  -28.7849  -47.1207   17.4839 N   0  0  0  0  0  0  0  0  0  0  0  0
  -36.2962  -45.2652   17.1391 N   0  0  0  0  0  0  0  0  0  0  0  0
  -38.1669  -46.1127   21.8041 N   0  0  0  0  0  0  0  0  0  0  0  0
  -37.9453  -47.3826   23.7576 N   0  0  0  0  0  0  0  0  0  0  0  0
  -40.2684  -44.7318   22.9589 N   0  0  0  0  0  0  0  0  0  0  0  0
  -33.6315  -46.6323   17.5734 N   0  0  0  0  0  0  0  0  0  0  0  0
  -35.7577  -45.4436   15.0452 O   0  0  0  0  0  0  0  0  0  0  0  0
  -37.1192  -47.8883   23.9607 H   0  0  0  0  0  0  0  0  0  0  0  0
  2  1  1  0
  1 23  3  0
  3  2  2  0
  6  2  1  0
  4  3  1  0
  5  4  2  0
 21  5  1  0
  5 28  1  0
 28  6  2  0
  7 10  2  0
  7 14  1  0
 24  7  1  0
  9  8  2  0
 15  8  1  0
  8 22  1  0
 10  9  1  0
 15 11  1  0
 11 16  1  6
 11 20  1  0
 11 25  1  0
 17 12  1  0
 12 18  2  0
 27 12  1  0
 13 19  2  0
 27 13  1  0
 14 15  2  0
 25 17  1  0
 17 26  2  0
 18 19  1  0
 20 27  1  0
 21 24  1  0
 21 29  2  0
 26 30  1  0
M  END
$$$$
