
     RDKit          3D

 30 33  0  0  0  0  0  0  0  0999 V2000
  -30.1491  -47.2820   17.4216 C   0  0  0  0  0  0  0  0  0  0  0  0
  -31.6116  -46.7874   17.3025 C   0  0  0  0  0  0  0  0  0  0  0  0
  -31.6089  -45.7357   16.3030 C   0  0  0  0  0  0  0  0  0  0  0  0
  -32.8678  -45.1697   16.0343 C   0  0  0  0  0  0  0  0  0  0  0  0
  -34.0524  -45.5880   16.6954 C   0  0  0  0  0  0  0  0  0  0  0  0
  -32.6892  -47.1599   17.8945 C   0  0  0  0  0  0  0  0  0  0  0  0
  -37.6704  -45.6350   17.4640 C   0  0  0  0  0  0  0  0  0  0  0  0
  -40.0946  -45.5909   18.7088 C   0  0  0  0  0  0  0  0  0  0  0  0
  -40.1046  -45.6913   17.2709 C   0  0  0  0  0  0  0  0  0  0  0  0
  -38.7379  -45.6779   16.9257 C   0  0  0  0  0  0  0  0  0  0  0  0
  -39.1602  -45.5792   20.9410 C   0  0  2  0  0  0  0  0  0  0  0  0
  -39.4682  -45.6843   23.6549 C   0  0  0  0  0  0  0  0  0  0  0  0
  -41.2274  -44.4810   23.3964 C   0  0  0  0  0  0  0  0  0  0  0  0
  -37.6847  -45.5390   18.9428 C   0  0  0  0  0  0  0  0  0  0  0  0
  -38.9598  -45.5213   19.4714 C   0  0  0  0  0  0  0  0  0  0  0  0
  -40.4317  -46.4354   21.0873 C   0  0  0  0  0  0  0  0  0  0  0  0
  -38.2594  -46.4513   23.1659 C   0  0  0  0  0  0  0  0  0  0  0  0
  -40.3174  -45.8525   24.7668 C   0  0  0  0  0  0  0  0  0  0  0  0
  -41.4537  -45.1192   24.7017 C   0  0  0  0  0  0  0  0  0  0  0  0
  -39.5765  -44.2508   21.5755 C   0  0  0  0  0  0  0  0  0  0  0  0
  -35.3757  -45.1981   16.1451 C   0  0  0  0  0  0  0  0  0  0  0  0
  -41.3615  -45.6513   19.1751 F   0  0  0  0  0  0  0  0  0  0  0  0
  -29.0892  -47.6327   17.5261 N   0  0  0  0  0  0  0  0  0  0  0  0
  -36.4557  -45.7066   16.8835 N   0  0  0  0  0  0  0  0  0  0  0  0
  -38.0635  -46.1401   21.6692 N   0  0  0  0  0  0  0  0  0  0  0  0
  -37.6991  -47.3271   23.6531 N   0  0  0  0  0  0  0  0  0  0  0  0
  -40.1753  -44.8143   22.8689 N   0  0  0  0  0  0  0  0  0  0  0  0
  -33.8391  -46.5535   17.5870 N   0  0  0  0  0  0  0  0  0  0  0  0
  -35.6939  -44.5594   15.2073 O   0  0  0  0  0  0  0  0  0  0  0  0
  -36.8492  -47.7065   23.9898 H   0  0  0  0  0  0  0  0  0  0  0  0
  2  1  1  0
  1 23  3  0
  3  2  2  0
  6  2  1  0
  4  3  1  0
  5  4  2  0
 21  5  1  0
  5 28  1  0
 28  6  2  0
  7 10  2  0
  7 14  1  0
 24  7  1  0
  9  8  2  0
 15  8  1  0
  8 22  1  0
 10  9  1  0
 15 11  1  0
 11 16  1  6
 11 20  1  0
 11 25  1  0
 17 12  1  0
 12 18  2  0
 27 12  1  0
 13 19  2  0
 27 13  1  0
 14 15  2  0
 25 17  1  0
 17 26  2  0
 18 19  1  0
 20 27  1  0
 21 24  1  0
 21 29  2  0
 26 30  1  0
M  END
$$$$
