
     RDKit          3D

 30 33  0  0  0  0  0  0  0  0999 V2000
  -29.6264  -46.4866   17.1804 C   0  0  0  0  0  0  0  0  0  0  0  0
  -31.1706  -46.3872   17.1258 C   0  0  0  0  0  0  0  0  0  0  0  0
  -31.4779  -45.1285   16.4729 C   0  0  0  0  0  0  0  0  0  0  0  0
  -32.8494  -44.8655   16.3074 C   0  0  0  0  0  0  0  0  0  0  0  0
  -33.8594  -45.7585   16.7519 C   0  0  0  0  0  0  0  0  0  0  0  0
  -32.0919  -47.1893   17.5236 C   0  0  0  0  0  0  0  0  0  0  0  0
  -37.4427  -45.3760   17.7957 C   0  0  0  0  0  0  0  0  0  0  0  0
  -39.9405  -45.2318   18.8769 C   0  0  0  0  0  0  0  0  0  0  0  0
  -39.8593  -45.3414   17.4419 C   0  0  0  0  0  0  0  0  0  0  0  0
  -38.4733  -45.3821   17.1880 C   0  0  0  0  0  0  0  0  0  0  0  0
  -39.1559  -45.2405   21.1660 C   0  0  2  0  0  0  0  0  0  0  0  0
  -39.6463  -45.3163   23.8540 C   0  0  0  0  0  0  0  0  0  0  0  0
  -41.3207  -44.0260   23.4784 C   0  0  0  0  0  0  0  0  0  0  0  0
  -37.5512  -45.2696   19.2699 C   0  0  0  0  0  0  0  0  0  0  0  0
  -38.8567  -45.2000   19.7127 C   0  0  0  0  0  0  0  0  0  0  0  0
  -40.4765  -46.0298   21.2297 C   0  0  0  0  0  0  0  0  0  0  0  0
  -38.4490  -46.1465   23.4468 C   0  0  0  0  0  0  0  0  0  0  0  0
  -40.5742  -45.4354   24.9078 C   0  0  0  0  0  0  0  0  0  0  0  0
  -41.6647  -44.6454   24.7669 C   0  0  0  0  0  0  0  0  0  0  0  0
  -39.5442  -43.8894   21.7697 C   0  0  0  0  0  0  0  0  0  0  0  0
  -35.2520  -45.5922   16.2629 C   0  0  0  0  0  0  0  0  0  0  0  0
  -41.2369  -45.2410   19.2584 F   0  0  0  0  0  0  0  0  0  0  0  0
  -28.5068  -46.5397   17.2140 N   0  0  0  0  0  0  0  0  0  0  0  0
  -36.1960  -45.4974   17.2973 N   0  0  0  0  0  0  0  0  0  0  0  0
  -38.1396  -45.8530   21.9657 N   0  0  0  0  0  0  0  0  0  0  0  0
  -37.9676  -47.0474   23.9711 N   0  0  0  0  0  0  0  0  0  0  0  0
  -40.2548  -44.4152   23.0218 N   0  0  0  0  0  0  0  0  0  0  0  0
  -33.3703  -46.8489   17.3388 N   0  0  0  0  0  0  0  0  0  0  0  0
  -35.7176  -45.5375   15.1818 O   0  0  0  0  0  0  0  0  0  0  0  0
  -37.1647  -47.6024   24.1349 H   0  0  0  0  0  0  0  0  0  0  0  0
  2  1  1  0
  1 23  3  0
  3  2  2  0
  6  2  1  0
  4  3  1  0
  5  4  2  0
 21  5  1  0
  5 28  1  0
 28  6  2  0
  7 10  2  0
  7 14  1  0
 24  7  1  0
  9  8  2  0
 15  8  1  0
  8 22  1  0
 10  9  1  0
 15 11  1  0
 11 16  1  6
 11 20  1  0
 11 25  1  0
 17 12  1  0
 12 18  2  0
 27 12  1  0
 13 19  2  0
 27 13  1  0
 14 15  2  0
 25 17  1  0
 17 26  2  0
 18 19  1  0
 20 27  1  0
 21 24  1  0
 21 29  2  0
 26 30  1  0
M  END
$$$$
