
     RDKit          3D

 30 33  0  0  0  0  0  0  0  0999 V2000
  -29.8764  -46.8748   17.2657 C   0  0  0  0  0  0  0  0  0  0  0  0
  -31.3650  -46.4493   17.2396 C   0  0  0  0  0  0  0  0  0  0  0  0
  -31.4671  -45.3730   16.2719 C   0  0  0  0  0  0  0  0  0  0  0  0
  -32.7642  -44.8623   16.0876 C   0  0  0  0  0  0  0  0  0  0  0  0
  -33.8894  -45.3551   16.7991 C   0  0  0  0  0  0  0  0  0  0  0  0
  -32.3895  -46.8892   17.8777 C   0  0  0  0  0  0  0  0  0  0  0  0
  -37.4444  -44.9148   17.8830 C   0  0  0  0  0  0  0  0  0  0  0  0
  -39.9372  -44.9676   18.9837 C   0  0  0  0  0  0  0  0  0  0  0  0
  -39.8614  -45.0144   17.5450 C   0  0  0  0  0  0  0  0  0  0  0  0
  -38.4776  -44.9598   17.2815 C   0  0  0  0  0  0  0  0  0  0  0  0
  -39.1346  -45.0199   21.2660 C   0  0  2  0  0  0  0  0  0  0  0  0
  -39.5971  -45.2364   23.9512 C   0  0  0  0  0  0  0  0  0  0  0  0
  -41.2925  -43.9526   23.6561 C   0  0  0  0  0  0  0  0  0  0  0  0
  -37.5468  -44.8745   19.3609 C   0  0  0  0  0  0  0  0  0  0  0  0
  -38.8505  -44.9029   19.8138 C   0  0  0  0  0  0  0  0  0  0  0  0
  -40.4437  -45.8298   21.3024 C   0  0  0  0  0  0  0  0  0  0  0  0
  -38.3927  -46.0284   23.4919 C   0  0  0  0  0  0  0  0  0  0  0  0
  -40.5127  -45.4209   25.0064 C   0  0  0  0  0  0  0  0  0  0  0  0
  -41.6151  -44.6401   24.9153 C   0  0  0  0  0  0  0  0  0  0  0  0
  -39.5351  -43.7061   21.9399 C   0  0  0  0  0  0  0  0  0  0  0  0
  -35.2581  -45.0160   16.3320 C   0  0  0  0  0  0  0  0  0  0  0  0
  -41.2274  -45.0715   19.3721 F   0  0  0  0  0  0  0  0  0  0  0  0
  -28.7932  -47.1646   17.2795 N   0  0  0  0  0  0  0  0  0  0  0  0
  -36.1968  -44.9395   17.3728 N   0  0  0  0  0  0  0  0  0  0  0  0
  -38.1021  -45.6572   22.0245 N   0  0  0  0  0  0  0  0  0  0  0  0
  -37.8939  -46.9475   23.9662 N   0  0  0  0  0  0  0  0  0  0  0  0
  -40.2260  -44.3036   23.1708 N   0  0  0  0  0  0  0  0  0  0  0  0
  -33.5820  -46.3319   17.6499 N   0  0  0  0  0  0  0  0  0  0  0  0
  -35.7094  -44.8125   15.2627 O   0  0  0  0  0  0  0  0  0  0  0  0
  -37.0940  -47.5225   24.0609 H   0  0  0  0  0  0  0  0  0  0  0  0
  2  1  1  0
  1 23  3  0
  3  2  2  0
  6  2  1  0
  4  3  1  0
  5  4  2  0
 21  5  1  0
  5 28  1  0
 28  6  2  0
  7 10  2  0
  7 14  1  0
 24  7  1  0
  9  8  2  0
 15  8  1  0
  8 22  1  0
 10  9  1  0
 15 11  1  0
 11 16  1  6
 11 20  1  0
 11 25  1  0
 17 12  1  0
 12 18  2  0
 27 12  1  0
 13 19  2  0
 27 13  1  0
 14 15  2  0
 25 17  1  0
 17 26  2  0
 18 19  1  0
 20 27  1  0
 21 24  1  0
 21 29  2  0
 26 30  1  0
M  END
$$$$
