
     RDKit          3D

 30 33  0  0  0  0  0  0  0  0999 V2000
  -29.9992  -47.0523   16.9758 C   0  0  0  0  0  0  0  0  0  0  0  0
  -31.5039  -46.6877   16.9532 C   0  0  0  0  0  0  0  0  0  0  0  0
  -31.6461  -45.5901   16.0150 C   0  0  0  0  0  0  0  0  0  0  0  0
  -32.9624  -45.1282   15.8377 C   0  0  0  0  0  0  0  0  0  0  0  0
  -34.0694  -45.6864   16.5291 C   0  0  0  0  0  0  0  0  0  0  0  0
  -32.5122  -47.1869   17.5733 C   0  0  0  0  0  0  0  0  0  0  0  0
  -37.6276  -45.2699   17.6241 C   0  0  0  0  0  0  0  0  0  0  0  0
  -40.1156  -45.2825   18.7368 C   0  0  0  0  0  0  0  0  0  0  0  0
  -40.0465  -45.3696   17.2997 C   0  0  0  0  0  0  0  0  0  0  0  0
  -38.6637  -45.3277   17.0287 C   0  0  0  0  0  0  0  0  0  0  0  0
  -39.3029  -45.2743   21.0161 C   0  0  2  0  0  0  0  0  0  0  0  0
  -39.7541  -45.4147   23.7083 C   0  0  0  0  0  0  0  0  0  0  0  0
  -41.4363  -44.1197   23.3876 C   0  0  0  0  0  0  0  0  0  0  0  0
  -37.7233  -45.1880   19.1008 C   0  0  0  0  0  0  0  0  0  0  0  0
  -39.0250  -45.1989   19.5600 C   0  0  0  0  0  0  0  0  0  0  0  0
  -40.6209  -46.0679   21.0802 C   0  0  0  0  0  0  0  0  0  0  0  0
  -38.5612  -46.2323   23.2644 C   0  0  0  0  0  0  0  0  0  0  0  0
  -40.6664  -45.5607   24.7724 C   0  0  0  0  0  0  0  0  0  0  0  0
  -41.7603  -44.7700   24.6660 C   0  0  0  0  0  0  0  0  0  0  0  0
  -39.6851  -43.9387   21.6571 C   0  0  0  0  0  0  0  0  0  0  0  0
  -35.4488  -45.3910   16.0641 C   0  0  0  0  0  0  0  0  0  0  0  0
  -41.4044  -45.3707   19.1336 F   0  0  0  0  0  0  0  0  0  0  0  0
  -28.9109  -47.3203   17.0115 N   0  0  0  0  0  0  0  0  0  0  0  0
  -36.3824  -45.3136   17.1094 N   0  0  0  0  0  0  0  0  0  0  0  0
  -38.2739  -45.9032   21.7863 N   0  0  0  0  0  0  0  0  0  0  0  0
  -38.0705  -47.1442   23.7603 N   0  0  0  0  0  0  0  0  0  0  0  0
  -40.3764  -44.4956   22.9066 N   0  0  0  0  0  0  0  0  0  0  0  0
  -33.7256  -46.6730   17.3544 N   0  0  0  0  0  0  0  0  0  0  0  0
  -35.9118  -45.2227   14.9936 O   0  0  0  0  0  0  0  0  0  0  0  0
  -38.1368  -48.0875   24.0523 H   0  0  0  0  0  0  0  0  0  0  0  0
  2  1  1  0
  1 23  3  0
  3  2  2  0
  6  2  1  0
  4  3  1  0
  5  4  2  0
 21  5  1  0
  5 28  1  0
 28  6  2  0
  7 10  2  0
  7 14  1  0
 24  7  1  0
  9  8  2  0
 15  8  1  0
  8 22  1  0
 10  9  1  0
 15 11  1  0
 11 16  1  6
 11 20  1  0
 11 25  1  0
 17 12  1  0
 12 18  2  0
 27 12  1  0
 13 19  2  0
 27 13  1  0
 14 15  2  0
 25 17  1  0
 17 26  2  0
 18 19  1  0
 20 27  1  0
 21 24  1  0
 21 29  2  0
 26 30  1  0
M  END
$$$$
