
     RDKit          3D

 30 33  0  0  0  0  0  0  0  0999 V2000
  -29.8280  -47.1667   16.9679 C   0  0  0  0  0  0  0  0  0  0  0  0
  -31.3245  -46.7703   16.9375 C   0  0  0  0  0  0  0  0  0  0  0  0
  -31.4515  -45.7239   15.9405 C   0  0  0  0  0  0  0  0  0  0  0  0
  -32.7590  -45.2431   15.7486 C   0  0  0  0  0  0  0  0  0  0  0  0
  -33.8713  -45.7367   16.4795 C   0  0  0  0  0  0  0  0  0  0  0  0
  -32.3375  -47.2112   17.5931 C   0  0  0  0  0  0  0  0  0  0  0  0
  -37.4318  -45.3073   17.5630 C   0  0  0  0  0  0  0  0  0  0  0  0
  -39.9234  -45.3065   18.6677 C   0  0  0  0  0  0  0  0  0  0  0  0
  -39.8499  -45.4000   17.2312 C   0  0  0  0  0  0  0  0  0  0  0  0
  -38.4661  -45.3640   16.9645 C   0  0  0  0  0  0  0  0  0  0  0  0
  -39.1180  -45.2915   20.9496 C   0  0  2  0  0  0  0  0  0  0  0  0
  -39.5786  -45.4226   23.6406 C   0  0  0  0  0  0  0  0  0  0  0  0
  -41.1753  -44.0216   23.3293 C   0  0  0  0  0  0  0  0  0  0  0  0
  -37.5319  -45.2189   19.0390 C   0  0  0  0  0  0  0  0  0  0  0  0
  -38.8351  -45.2232   19.4940 C   0  0  0  0  0  0  0  0  0  0  0  0
  -40.4836  -46.0006   21.0078 C   0  0  0  0  0  0  0  0  0  0  0  0
  -38.4395  -46.3107   23.1908 C   0  0  0  0  0  0  0  0  0  0  0  0
  -40.4988  -45.5184   24.7036 C   0  0  0  0  0  0  0  0  0  0  0  0
  -41.5405  -44.6594   24.6029 C   0  0  0  0  0  0  0  0  0  0  0  0
  -39.4153  -43.9391   21.6002 C   0  0  0  0  0  0  0  0  0  0  0  0
  -35.2483  -45.4369   16.0102 C   0  0  0  0  0  0  0  0  0  0  0  0
  -41.2137  -45.3885   19.0607 F   0  0  0  0  0  0  0  0  0  0  0  0
  -28.7393  -47.4351   16.9859 N   0  0  0  0  0  0  0  0  0  0  0  0
  -36.1851  -45.3575   17.0525 N   0  0  0  0  0  0  0  0  0  0  0  0
  -38.1312  -45.9898   21.7151 N   0  0  0  0  0  0  0  0  0  0  0  0
  -38.0076  -47.2555   23.6801 N   0  0  0  0  0  0  0  0  0  0  0  0
  -40.1410  -44.4602   22.8456 N   0  0  0  0  0  0  0  0  0  0  0  0
  -33.5414  -46.6832   17.3558 N   0  0  0  0  0  0  0  0  0  0  0  0
  -35.7073  -45.2663   14.9384 O   0  0  0  0  0  0  0  0  0  0  0  0
  -38.1565  -48.0804   24.2062 H   0  0  0  0  0  0  0  0  0  0  0  0
  2  1  1  0
  1 23  3  0
  3  2  2  0
  6  2  1  0
  4  3  1  0
  5  4  2  0
 21  5  1  0
  5 28  1  0
 28  6  2  0
  7 10  2  0
  7 14  1  0
 24  7  1  0
  9  8  2  0
 15  8  1  0
  8 22  1  0
 10  9  1  0
 15 11  1  0
 11 16  1  6
 11 20  1  0
 11 25  1  0
 17 12  1  0
 12 18  2  0
 27 12  1  0
 13 19  2  0
 27 13  1  0
 14 15  2  0
 25 17  1  0
 17 26  2  0
 18 19  1  0
 20 27  1  0
 21 24  1  0
 21 29  2  0
 26 30  1  0
M  END
$$$$
