
     RDKit          3D

 30 33  0  0  0  0  0  0  0  0999 V2000
  -29.9633  -47.0052   17.0692 C   0  0  0  0  0  0  0  0  0  0  0  0
  -31.4728  -46.6656   17.0097 C   0  0  0  0  0  0  0  0  0  0  0  0
  -31.6125  -45.5832   16.0537 C   0  0  0  0  0  0  0  0  0  0  0  0
  -32.9319  -45.1454   15.8421 C   0  0  0  0  0  0  0  0  0  0  0  0
  -34.0444  -45.7122   16.5176 C   0  0  0  0  0  0  0  0  0  0  0  0
  -32.4860  -47.1728   17.6152 C   0  0  0  0  0  0  0  0  0  0  0  0
  -37.5796  -45.2189   17.5917 C   0  0  0  0  0  0  0  0  0  0  0  0
  -40.0375  -45.3242   18.7647 C   0  0  0  0  0  0  0  0  0  0  0  0
  -40.0001  -45.4107   17.3264 C   0  0  0  0  0  0  0  0  0  0  0  0
  -38.6269  -45.3168   17.0218 C   0  0  0  0  0  0  0  0  0  0  0  0
  -39.1705  -45.2820   21.0235 C   0  0  2  0  0  0  0  0  0  0  0  0
  -39.5504  -45.4383   23.7258 C   0  0  0  0  0  0  0  0  0  0  0  0
  -41.2323  -44.1307   23.4591 C   0  0  0  0  0  0  0  0  0  0  0  0
  -37.6423  -45.1386   19.0702 C   0  0  0  0  0  0  0  0  0  0  0  0
  -38.9311  -45.1982   19.5610 C   0  0  0  0  0  0  0  0  0  0  0  0
  -40.4914  -46.0678   21.1175 C   0  0  0  0  0  0  0  0  0  0  0  0
  -38.3751  -46.2601   23.2445 C   0  0  0  0  0  0  0  0  0  0  0  0
  -40.4348  -45.5860   24.8129 C   0  0  0  0  0  0  0  0  0  0  0  0
  -41.5261  -44.7879   24.7413 C   0  0  0  0  0  0  0  0  0  0  0  0
  -39.5268  -43.9485   21.6835 C   0  0  0  0  0  0  0  0  0  0  0  0
  -35.4181  -45.4457   16.0194 C   0  0  0  0  0  0  0  0  0  0  0  0
  -41.3120  -45.4606   19.1928 F   0  0  0  0  0  0  0  0  0  0  0  0
  -28.8745  -47.2703   17.1120 N   0  0  0  0  0  0  0  0  0  0  0  0
  -36.3465  -45.2161   17.0468 N   0  0  0  0  0  0  0  0  0  0  0  0
  -38.1253  -45.9226   21.7615 N   0  0  0  0  0  0  0  0  0  0  0  0
  -37.8771  -47.1785   23.7209 N   0  0  0  0  0  0  0  0  0  0  0  0
  -40.1880  -44.5097   22.9473 N   0  0  0  0  0  0  0  0  0  0  0  0
  -33.7026  -46.6819   17.3635 N   0  0  0  0  0  0  0  0  0  0  0  0
  -35.8804  -45.4025   14.9363 O   0  0  0  0  0  0  0  0  0  0  0  0
  -37.3598  -48.0149   23.6092 H   0  0  0  0  0  0  0  0  0  0  0  0
  2  1  1  0
  1 23  3  0
  3  2  2  0
  6  2  1  0
  4  3  1  0
  5  4  2  0
 21  5  1  0
  5 28  1  0
 28  6  2  0
  7 10  2  0
  7 14  1  0
 24  7  1  0
  9  8  2  0
 15  8  1  0
  8 22  1  0
 10  9  1  0
 15 11  1  0
 11 16  1  6
 11 20  1  0
 11 25  1  0
 17 12  1  0
 12 18  2  0
 27 12  1  0
 13 19  2  0
 27 13  1  0
 14 15  2  0
 25 17  1  0
 17 26  2  0
 18 19  1  0
 20 27  1  0
 21 24  1  0
 21 29  2  0
 26 30  1  0
M  END
$$$$
