
     RDKit          3D

 30 33  0  0  0  0  0  0  0  0999 V2000
  -29.8989  -47.0937   17.0826 C   0  0  0  0  0  0  0  0  0  0  0  0
  -31.3690  -46.6074   17.0876 C   0  0  0  0  0  0  0  0  0  0  0  0
  -31.4234  -45.4563   16.2061 C   0  0  0  0  0  0  0  0  0  0  0  0
  -32.6980  -44.8807   16.0603 C   0  0  0  0  0  0  0  0  0  0  0  0
  -33.8453  -45.3809   16.7301 C   0  0  0  0  0  0  0  0  0  0  0  0
  -32.4132  -47.0534   17.6886 C   0  0  0  0  0  0  0  0  0  0  0  0
  -37.4400  -45.3467   17.7063 C   0  0  0  0  0  0  0  0  0  0  0  0
  -39.8616  -45.3094   18.9564 C   0  0  0  0  0  0  0  0  0  0  0  0
  -39.8745  -45.4120   17.5187 C   0  0  0  0  0  0  0  0  0  0  0  0
  -38.5087  -45.3943   17.1704 C   0  0  0  0  0  0  0  0  0  0  0  0
  -38.9224  -45.2910   21.1865 C   0  0  2  0  0  0  0  0  0  0  0  0
  -39.2239  -45.3939   23.9012 C   0  0  0  0  0  0  0  0  0  0  0  0
  -40.9717  -44.1730   23.6479 C   0  0  0  0  0  0  0  0  0  0  0  0
  -37.4515  -45.2486   19.1849 C   0  0  0  0  0  0  0  0  0  0  0  0
  -38.7254  -45.2345   19.7163 C   0  0  0  0  0  0  0  0  0  0  0  0
  -40.2020  -46.1344   21.3361 C   0  0  0  0  0  0  0  0  0  0  0  0
  -38.0242  -46.1728   23.4086 C   0  0  0  0  0  0  0  0  0  0  0  0
  -40.0717  -45.5539   25.0154 C   0  0  0  0  0  0  0  0  0  0  0  0
  -41.2008  -44.8093   24.9536 C   0  0  0  0  0  0  0  0  0  0  0  0
  -39.3236  -43.9586   21.8225 C   0  0  0  0  0  0  0  0  0  0  0  0
  -35.1971  -44.9514   16.2890 C   0  0  0  0  0  0  0  0  0  0  0  0
  -41.1273  -45.3735   19.4256 F   0  0  0  0  0  0  0  0  0  0  0  0
  -28.8287  -47.4283   17.0718 N   0  0  0  0  0  0  0  0  0  0  0  0
  -36.2265  -45.4149   17.1232 N   0  0  0  0  0  0  0  0  0  0  0  0
  -37.8293  -45.8630   21.9114 N   0  0  0  0  0  0  0  0  0  0  0  0
  -37.4713  -47.0543   23.8940 N   0  0  0  0  0  0  0  0  0  0  0  0
  -39.9245  -44.5166   23.1174 N   0  0  0  0  0  0  0  0  0  0  0  0
  -33.5812  -46.4322   17.5031 N   0  0  0  0  0  0  0  0  0  0  0  0
  -35.5726  -44.3119   15.3733 O   0  0  0  0  0  0  0  0  0  0  0  0
  -36.6379  -47.5782   23.9968 H   0  0  0  0  0  0  0  0  0  0  0  0
  2  1  1  0
  1 23  3  0
  3  2  2  0
  6  2  1  0
  4  3  1  0
  5  4  2  0
 21  5  1  0
  5 28  1  0
 28  6  2  0
  7 10  2  0
  7 14  1  0
 24  7  1  0
  9  8  2  0
 15  8  1  0
  8 22  1  0
 10  9  1  0
 15 11  1  0
 11 16  1  6
 11 20  1  0
 11 25  1  0
 17 12  1  0
 12 18  2  0
 27 12  1  0
 13 19  2  0
 27 13  1  0
 14 15  2  0
 25 17  1  0
 17 26  2  0
 18 19  1  0
 20 27  1  0
 21 24  1  0
 21 29  2  0
 26 30  1  0
M  END
$$$$
