
     RDKit          3D

 15 14  0  0  0  0  0  0  0  0999 V2000
   46.8117  147.5497   61.7191 P   0  0  1  0  0  5  0  0  0  0  0  0
   47.5091  146.1741   62.4006 O   0  0  0  0  0  0  0  0  0  0  0  0
   47.6843  148.1071   60.6258 O   0  0  0  0  0  0  0  0  0  0  0  0
   45.2874  147.1533   61.1579 O   0  0  0  0  0  0  0  0  0  0  0  0
   45.4144  146.1260   59.8386 P   0  0  1  0  0  5  0  0  0  0  0  0
   43.9661  145.9544   59.0098 O   0  0  0  0  0  0  0  0  0  0  0  0
   46.5177  146.6303   58.9089 O   0  0  0  0  0  0  0  0  0  0  0  0
   45.9075  144.6068   60.3934 O   0  0  0  0  0  0  0  0  0  0  0  0
   46.5797  152.7393   62.6698 C   0  0  0  0  0  0  0  0  0  0  0  0
   45.3253  150.6733   63.1433 C   0  0  0  0  0  0  0  0  0  0  0  0
   46.3152  149.9407   62.3105 C   0  0  0  0  0  0  0  0  0  0  0  0
   46.6603  148.7251   62.9244 O   0  0  0  0  0  0  0  0  0  0  0  0
   45.4416  151.9756   63.2955 C   0  0  0  0  0  0  0  0  0  0  0  0
   44.4419  152.7080   64.0926 C   0  0  0  0  0  0  0  0  0  0  0  0
   43.2954  152.9955   63.3393 O   0  0  0  0  0  0  0  0  0  0  0  0
  1  2  1  1
  1  3  2  0
  1  4  1  0
 12  1  1  0
  4  5  1  0
  5  6  1  6
  5  7  2  0
  5  8  1  0
 13  9  1  0
 11 10  1  0
 10 13  2  0
 11 12  1  0
 13 14  1  0
 14 15  1  0
M  END
$$$$
