
     RDKit          3D

 15 14  0  0  0  0  0  0  0  0999 V2000
   44.9284  148.2112   59.9682 P   0  0  1  0  0  5  0  0  0  0  0  0
   44.9879  148.7251   58.3633 O   0  0  0  0  0  0  0  0  0  0  0  0
   43.7044  147.3699   60.2162 O   0  0  0  0  0  0  0  0  0  0  0  0
   46.3365  147.3790   60.3149 O   0  0  0  0  0  0  0  0  0  0  0  0
   46.1055  145.7371   60.0646 P   0  0  1  0  0  5  0  0  0  0  0  0
   46.9754  144.7893   61.1410 O   0  0  0  0  0  0  0  0  0  0  0  0
   44.6127  145.4187   60.1415 O   0  0  0  0  0  0  0  0  0  0  0  0
   46.5980  145.3650   58.4904 O   0  0  0  0  0  0  0  0  0  0  0  0
   44.4194  151.5368   63.5725 C   0  0  0  0  0  0  0  0  0  0  0  0
   46.3330  150.2767   62.6689 C   0  0  0  0  0  0  0  0  0  0  0  0
   45.3718  149.2355   62.2192 C   0  0  0  0  0  0  0  0  0  0  0  0
   44.8419  149.5749   60.9631 O   0  0  0  0  0  0  0  0  0  0  0  0
   45.8847  151.3582   63.2707 C   0  0  0  0  0  0  0  0  0  0  0  0
   46.8295  152.4199   63.6600 C   0  0  0  0  0  0  0  0  0  0  0  0
   46.4390  153.0418   64.8538 O   0  0  0  0  0  0  0  0  0  0  0  0
  1  2  1  6
  1  3  2  0
  1  4  1  0
 12  1  1  0
  4  5  1  0
  5  6  1  1
  5  7  2  0
  5  8  1  0
 13  9  1  0
 11 10  1  0
 10 13  2  0
 11 12  1  0
 13 14  1  0
 14 15  1  0
M  END
$$$$
