
     RDKit          3D

 15 14  0  0  0  0  0  0  0  0999 V2000
   44.4445  148.0197   59.9265 P   0  0  1  0  0  5  0  0  0  0  0  0
   44.0485  149.1729   58.7618 O   0  0  0  0  0  0  0  0  0  0  0  0
   43.3979  146.9387   59.9874 O   0  0  0  0  0  0  0  0  0  0  0  0
   45.9576  147.4021   59.5735 O   0  0  0  0  0  0  0  0  0  0  0  0
   46.1816  145.9471   60.3763 P   0  0  1  0  0  5  0  0  0  0  0  0
   47.3265  146.0511   61.5978 O   0  0  0  0  0  0  0  0  0  0  0  0
   44.8410  145.4608   60.9259 O   0  0  0  0  0  0  0  0  0  0  0  0
   46.6896  144.7919   59.2509 O   0  0  0  0  0  0  0  0  0  0  0  0
   46.6385  149.8493   63.9808 C   0  0  0  0  0  0  0  0  0  0  0  0
   45.1601  150.8875   62.3067 C   0  0  0  0  0  0  0  0  0  0  0  0
   45.5007  149.7711   61.3858 C   0  0  0  0  0  0  0  0  0  0  0  0
   44.5046  148.7816   61.4341 O   0  0  0  0  0  0  0  0  0  0  0  0
   45.7148  150.9379   63.4994 C   0  0  0  0  0  0  0  0  0  0  0  0
   45.4311  152.0794   64.3870 C   0  0  0  0  0  0  0  0  0  0  0  0
   46.5536  152.9055   64.5352 O   0  0  0  0  0  0  0  0  0  0  0  0
  1  2  1  6
  1  3  2  0
  1  4  1  0
 12  1  1  0
  4  5  1  0
  5  6  1  1
  5  7  2  0
  5  8  1  0
 13  9  1  0
 11 10  1  0
 10 13  2  0
 11 12  1  0
 13 14  1  0
 14 15  1  0
M  END
$$$$
