
     RDKit          3D

 15 14  0  0  0  0  0  0  0  0999 V2000
   44.4036  148.0274   59.7720 P   0  0  1  0  0  5  0  0  0  0  0  0
   44.1449  148.8528   58.3246 O   0  0  0  0  0  0  0  0  0  0  0  0
   43.5801  146.7678   59.8250 O   0  0  0  0  0  0  0  0  0  0  0  0
   46.0383  147.7092   59.9204 O   0  0  0  0  0  0  0  0  0  0  0  0
   46.2765  146.0784   60.2293 P   0  0  1  0  0  5  0  0  0  0  0  0
   44.8399  145.2515   60.4868 O   0  0  0  0  0  0  0  0  0  0  0  0
   47.0651  145.4552   59.0779 O   0  0  0  0  0  0  0  0  0  0  0  0
   47.2425  145.9345   61.6096 O   0  0  0  0  0  0  0  0  0  0  0  0
   47.1797  149.9165   62.4420 C   0  0  0  0  0  0  0  0  0  0  0  0
   44.8084  149.8220   63.1010 C   0  0  0  0  0  0  0  0  0  0  0  0
   44.6534  148.6559   62.1919 C   0  0  0  0  0  0  0  0  0  0  0  0
   43.9242  149.0254   61.0493 O   0  0  0  0  0  0  0  0  0  0  0  0
   45.9893  150.3875   63.2364 C   0  0  0  0  0  0  0  0  0  0  0  0
   46.1577  151.5047   64.1824 C   0  0  0  0  0  0  0  0  0  0  0  0
   46.3351  152.7226   63.5118 O   0  0  0  0  0  0  0  0  0  0  0  0
  1  2  1  6
  1  3  2  0
  1  4  1  0
 12  1  1  0
  4  5  1  0
  5  6  1  1
  5  7  2  0
  5  8  1  0
 13  9  1  0
 11 10  1  0
 10 13  2  0
 11 12  1  0
 13 14  1  0
 14 15  1  0
M  END
$$$$
