
     RDKit          3D

 15 14  0  0  0  0  0  0  0  0999 V2000
   47.2522  147.2873   60.8274 P   0  0  1  0  0  5  0  0  0  0  0  0
   48.5639  146.4921   61.5276 O   0  0  0  0  0  0  0  0  0  0  0  0
   47.7129  148.4719   60.0199 O   0  0  0  0  0  0  0  0  0  0  0  0
   46.3996  146.1920   59.8951 O   0  0  0  0  0  0  0  0  0  0  0  0
   44.8209  146.0784   60.4489 P   0  0  1  0  0  5  0  0  0  0  0  0
   44.3090  144.4906   60.6243 O   0  0  0  0  0  0  0  0  0  0  0  0
   44.6908  146.8415   61.7667 O   0  0  0  0  0  0  0  0  0  0  0  0
   43.8108  146.8567   59.3385 O   0  0  0  0  0  0  0  0  0  0  0  0
   46.7862  151.6700   61.9642 C   0  0  0  0  0  0  0  0  0  0  0  0
   45.3223  149.8927   62.8384 C   0  0  0  0  0  0  0  0  0  0  0  0
   45.6902  149.0734   61.6536 C   0  0  0  0  0  0  0  0  0  0  0  0
   46.2465  147.8503   62.0637 O   0  0  0  0  0  0  0  0  0  0  0  0
   45.8685  151.0790   63.0028 C   0  0  0  0  0  0  0  0  0  0  0  0
   45.5810  151.8504   64.2249 C   0  0  0  0  0  0  0  0  0  0  0  0
   46.7140  151.9566   65.0431 O   0  0  0  0  0  0  0  0  0  0  0  0
  1  2  1  1
  1  3  2  0
  1  4  1  0
 12  1  1  0
  4  5  1  0
  5  6  1  1
  5  7  2  0
  5  8  1  0
 13  9  1  0
 11 10  1  0
 10 13  2  0
 11 12  1  0
 13 14  1  0
 14 15  1  0
M  END
$$$$
