
     RDKit          3D

 15 14  0  0  0  0  0  0  0  0999 V2000
   44.9272  148.2961   60.1010 P   0  0  1  0  0  5  0  0  0  0  0  0
   44.9421  149.7792   59.2989 O   0  0  0  0  0  0  0  0  0  0  0  0
   43.9377  147.3544   59.4675 O   0  0  0  0  0  0  0  0  0  0  0  0
   46.4771  147.6689   60.0923 O   0  0  0  0  0  0  0  0  0  0  0  0
   46.4561  146.0879   60.6509 P   0  0  1  0  0  5  0  0  0  0  0  0
   47.5766  145.8167   61.8694 O   0  0  0  0  0  0  0  0  0  0  0  0
   45.0448  145.7357   61.1201 O   0  0  0  0  0  0  0  0  0  0  0  0
   46.8037  145.0611   59.3532 O   0  0  0  0  0  0  0  0  0  0  0  0
   44.8031  151.6296   64.4971 C   0  0  0  0  0  0  0  0  0  0  0  0
   45.7339  150.3324   62.6217 C   0  0  0  0  0  0  0  0  0  0  0  0
   44.4700  149.9435   61.9422 C   0  0  0  0  0  0  0  0  0  0  0  0
   44.4545  148.5593   61.7024 O   0  0  0  0  0  0  0  0  0  0  0  0
   45.7667  151.4235   63.3573 C   0  0  0  0  0  0  0  0  0  0  0  0
   46.7635  152.4688   63.0659 C   0  0  0  0  0  0  0  0  0  0  0  0
   46.1873  153.5533   62.3903 O   0  0  0  0  0  0  0  0  0  0  0  0
  1  2  1  6
  1  3  2  0
  1  4  1  0
 12  1  1  0
  4  5  1  0
  5  6  1  1
  5  7  2  0
  5  8  1  0
 13  9  1  0
 11 10  1  0
 10 13  2  0
 11 12  1  0
 13 14  1  0
 14 15  1  0
M  END
$$$$
