
     RDKit          3D

 15 14  0  0  0  0  0  0  0  0999 V2000
   46.0601  148.4191   60.3404 P   0  0  1  0  0  5  0  0  0  0  0  0
   47.0660  149.7677   60.4523 O   0  0  0  0  0  0  0  0  0  0  0  0
   45.7953  148.0664   58.9006 O   0  0  0  0  0  0  0  0  0  0  0  0
   46.7697  147.1534   61.1710 O   0  0  0  0  0  0  0  0  0  0  0  0
   46.1566  145.6935   60.6189 P   0  0  1  0  0  5  0  0  0  0  0  0
   46.2642  144.4717   61.7633 O   0  0  0  0  0  0  0  0  0  0  0  0
   44.7100  145.8907   60.1668 O   0  0  0  0  0  0  0  0  0  0  0  0
   47.0326  145.2337   59.2477 O   0  0  0  0  0  0  0  0  0  0  0  0
   46.2175  150.7492   64.6024 C   0  0  0  0  0  0  0  0  0  0  0  0
   44.8009  150.5992   62.5932 C   0  0  0  0  0  0  0  0  0  0  0  0
   44.8306  149.1235   62.4152 C   0  0  0  0  0  0  0  0  0  0  0  0
   44.5830  148.7919   61.0727 O   0  0  0  0  0  0  0  0  0  0  0  0
   45.7860  151.1966   63.2299 C   0  0  0  0  0  0  0  0  0  0  0  0
   46.4855  152.3266   62.5934 C   0  0  0  0  0  0  0  0  0  0  0  0
   45.5928  153.3455   62.2335 O   0  0  0  0  0  0  0  0  0  0  0  0
  1  2  1  6
  1  3  2  0
  1  4  1  0
 12  1  1  0
  4  5  1  0
  5  6  1  1
  5  7  2  0
  5  8  1  0
 13  9  1  0
 11 10  1  0
 10 13  2  0
 11 12  1  0
 13 14  1  0
 14 15  1  0
M  END
$$$$
