
     RDKit          3D

 15 14  0  0  0  0  0  0  0  0999 V2000
   44.0038  147.5919   60.4505 P   0  0  1  0  0  5  0  0  0  0  0  0
   43.6433  148.3381   58.9820 O   0  0  0  0  0  0  0  0  0  0  0  0
   42.8509  147.7151   61.4112 O   0  0  0  0  0  0  0  0  0  0  0  0
   44.3998  145.9946   60.1546 O   0  0  0  0  0  0  0  0  0  0  0  0
   46.0639  145.7982   60.2172 P   0  0  1  0  0  5  0  0  0  0  0  0
   46.6386  144.7612   59.0305 O   0  0  0  0  0  0  0  0  0  0  0  0
   46.7390  147.1659   60.1191 O   0  0  0  0  0  0  0  0  0  0  0  0
   46.4680  145.1680   61.7333 O   0  0  0  0  0  0  0  0  0  0  0  0
   47.2425  150.2874   62.4028 C   0  0  0  0  0  0  0  0  0  0  0  0
   45.0199  149.5472   63.1630 C   0  0  0  0  0  0  0  0  0  0  0  0
   45.2694  148.2273   62.5260 C   0  0  0  0  0  0  0  0  0  0  0  0
   45.3424  148.3686   61.1301 O   0  0  0  0  0  0  0  0  0  0  0  0
   45.8658  150.5355   62.9625 C   0  0  0  0  0  0  0  0  0  0  0  0
   45.4649  151.9153   63.2895 C   0  0  0  0  0  0  0  0  0  0  0  0
   44.2420  152.2496   62.6919 O   0  0  0  0  0  0  0  0  0  0  0  0
  1  2  1  6
  1  3  2  0
  1  4  1  0
 12  1  1  0
  4  5  1  0
  5  6  1  6
  5  7  2  0
  5  8  1  0
 13  9  1  0
 11 10  1  0
 10 13  2  0
 11 12  1  0
 13 14  1  0
 14 15  1  0
M  END
$$$$
