
     RDKit          3D

 15 14  0  0  0  0  0  0  0  0999 V2000
   47.0055  146.9613   61.3703 P   0  0  1  0  0  5  0  0  0  0  0  0
   47.4416  146.7394   62.9839 O   0  0  0  0  0  0  0  0  0  0  0  0
   48.1127  146.5191   60.4505 O   0  0  0  0  0  0  0  0  0  0  0  0
   45.5857  146.1271   61.0814 O   0  0  0  0  0  0  0  0  0  0  0  0
   45.2510  146.1219   59.4383 P   0  0  1  0  0  5  0  0  0  0  0  0
   44.6312  147.5844   58.8991 O   0  0  0  0  0  0  0  0  0  0  0  0
   46.5154  145.7479   58.6655 O   0  0  0  0  0  0  0  0  0  0  0  0
   44.1191  144.9042   59.1303 O   0  0  0  0  0  0  0  0  0  0  0  0
   46.6354  149.9016   64.7459 C   0  0  0  0  0  0  0  0  0  0  0  0
   46.1697  150.5158   62.4067 C   0  0  0  0  0  0  0  0  0  0  0  0
   45.8938  149.0800   62.1371 C   0  0  0  0  0  0  0  0  0  0  0  0
   46.7318  148.6093   61.1125 O   0  0  0  0  0  0  0  0  0  0  0  0
   46.5260  150.8928   63.6165 C   0  0  0  0  0  0  0  0  0  0  0  0
   46.8256  152.3116   63.8788 C   0  0  0  0  0  0  0  0  0  0  0  0
   45.6634  153.0946   63.8532 O   0  0  0  0  0  0  0  0  0  0  0  0
  1  2  1  1
  1  3  2  0
  1  4  1  0
 12  1  1  0
  4  5  1  0
  5  6  1  6
  5  7  2  0
  5  8  1  0
 13  9  1  0
 11 10  1  0
 10 13  2  0
 11 12  1  0
 13 14  1  0
 14 15  1  0
M  END
$$$$
