
     RDKit          3D

 15 14  0  0  0  0  0  0  0  0999 V2000
   45.0440  147.9810   59.7167 P   0  0  1  0  0  5  0  0  0  0  0  0
   45.8177  147.5424   58.2841 O   0  0  0  0  0  0  0  0  0  0  0  0
   43.8938  148.9129   59.4406 O   0  0  0  0  0  0  0  0  0  0  0  0
   44.5449  146.5914   60.5011 O   0  0  0  0  0  0  0  0  0  0  0  0
   45.7344  145.4147   60.3898 P   0  0  1  0  0  5  0  0  0  0  0  0
   45.1057  143.8804   60.1355 O   0  0  0  0  0  0  0  0  0  0  0  0
   46.7168  145.7915   59.2813 O   0  0  0  0  0  0  0  0  0  0  0  0
   46.6142  145.4102   61.8337 O   0  0  0  0  0  0  0  0  0  0  0  0
   44.4486  151.5004   63.3809 C   0  0  0  0  0  0  0  0  0  0  0  0
   46.3816  150.1875   62.6025 C   0  0  0  0  0  0  0  0  0  0  0  0
   45.4482  149.4207   61.7358 C   0  0  0  0  0  0  0  0  0  0  0  0
   46.1561  148.7916   60.6981 O   0  0  0  0  0  0  0  0  0  0  0  0
   45.9166  151.1622   63.3550 C   0  0  0  0  0  0  0  0  0  0  0  0
   46.8450  151.9427   64.1918 C   0  0  0  0  0  0  0  0  0  0  0  0
   46.2629  153.1430   64.6218 O   0  0  0  0  0  0  0  0  0  0  0  0
  1  2  1  6
  1  3  2  0
  1  4  1  0
 12  1  1  0
  4  5  1  0
  5  6  1  6
  5  7  2  0
  5  8  1  0
 13  9  1  0
 11 10  1  0
 10 13  2  0
 11 12  1  0
 13 14  1  0
 14 15  1  0
M  END
$$$$
