
     RDKit          3D

 15 14  0  0  0  0  0  0  0  0999 V2000
   45.4328  148.2452   60.0006 P   0  0  1  0  0  5  0  0  0  0  0  0
   45.6019  148.2572   58.3230 O   0  0  0  0  0  0  0  0  0  0  0  0
   44.0774  147.7237   60.3986 O   0  0  0  0  0  0  0  0  0  0  0  0
   46.6690  147.3294   60.6553 O   0  0  0  0  0  0  0  0  0  0  0  0
   46.2477  145.7064   60.6381 P   0  0  1  0  0  5  0  0  0  0  0  0
   45.1314  145.3146   61.8273 O   0  0  0  0  0  0  0  0  0  0  0  0
   45.7207  145.3351   59.2524 O   0  0  0  0  0  0  0  0  0  0  0  0
   47.6482  144.7912   60.8832 O   0  0  0  0  0  0  0  0  0  0  0  0
   45.0962  150.2797   64.7187 C   0  0  0  0  0  0  0  0  0  0  0  0
   45.2843  151.2333   62.4556 C   0  0  0  0  0  0  0  0  0  0  0  0
   45.0959  149.8739   61.8839 C   0  0  0  0  0  0  0  0  0  0  0  0
   45.5734  149.8329   60.5632 O   0  0  0  0  0  0  0  0  0  0  0  0
   45.4690  151.3731   63.7514 C   0  0  0  0  0  0  0  0  0  0  0  0
   46.0517  152.6217   64.2736 C   0  0  0  0  0  0  0  0  0  0  0  0
   46.0815  153.6233   63.2935 O   0  0  0  0  0  0  0  0  0  0  0  0
  1  2  1  6
  1  3  2  0
  1  4  1  0
 12  1  1  0
  4  5  1  0
  5  6  1  1
  5  7  2  0
  5  8  1  0
 13  9  1  0
 11 10  1  0
 10 13  2  0
 11 12  1  0
 13 14  1  0
 14 15  1  0
M  END
$$$$
