
     RDKit          3D

 15 14  0  0  0  0  0  0  0  0999 V2000
   46.8747  146.5126   60.9945 P   0  0  1  0  0  5  0  0  0  0  0  0
   47.7930  145.6938   62.1475 O   0  0  0  0  0  0  0  0  0  0  0  0
   47.5182  146.4243   59.6360 O   0  0  0  0  0  0  0  0  0  0  0  0
   45.3284  145.8764   60.9934 O   0  0  0  0  0  0  0  0  0  0  0  0
   44.5154  146.3548   59.6071 P   0  0  1  0  0  5  0  0  0  0  0  0
   43.7927  147.8602   59.7673 O   0  0  0  0  0  0  0  0  0  0  0  0
   45.4811  146.3373   58.4226 O   0  0  0  0  0  0  0  0  0  0  0  0
   43.3182  145.2091   59.2710 O   0  0  0  0  0  0  0  0  0  0  0  0
   44.8969  150.8148   62.5266 C   0  0  0  0  0  0  0  0  0  0  0  0
   46.6846  149.3929   63.4476 C   0  0  0  0  0  0  0  0  0  0  0  0
   46.1620  148.2271   62.6872 C   0  0  0  0  0  0  0  0  0  0  0  0
   46.7934  148.1424   61.4350 O   0  0  0  0  0  0  0  0  0  0  0  0
   46.2430  150.6011   63.1688 C   0  0  0  0  0  0  0  0  0  0  0  0
   47.0767  151.7733   63.4887 C   0  0  0  0  0  0  0  0  0  0  0  0
   46.7045  152.3495   64.7109 O   0  0  0  0  0  0  0  0  0  0  0  0
  1  2  1  1
  1  3  2  0
  1  4  1  0
 12  1  1  0
  4  5  1  0
  5  6  1  1
  5  7  2  0
  5  8  1  0
 13  9  1  0
 11 10  1  0
 10 13  2  0
 11 12  1  0
 13 14  1  0
 14 15  1  0
M  END
$$$$
