
     RDKit          3D

 42 45  0  0  0  0  0  0  0  0999 V2000
   71.6407   56.8380   14.9722 C   0  0  1  0  0  0  0  0  0  0  0  0
   71.4617   57.4151   16.3836 C   0  0  2  0  0  0  0  0  0  0  0  0
   72.9285   58.6878   17.9878 C   0  0  0  0  0  0  0  0  0  0  0  0
   74.5294   59.8357   19.4808 C   0  0  1  0  0  0  0  0  0  0  0  0
   75.4501   61.0368   19.5289 C   0  0  0  0  0  0  0  0  0  0  0  0
   74.3995   61.0960   21.4519 C   0  0  1  0  0  0  0  0  0  0  0  0
   72.6517   62.3142   20.7618 C   0  0  0  0  0  0  0  0  0  0  0  0
   70.2245   58.2856   16.3288 C   0  0  0  0  0  0  0  0  0  0  0  0
   66.6117   51.0322   14.1871 C   0  0  0  0  0  0  0  0  0  0  0  0
   67.5285   50.6110   15.1095 C   0  0  0  0  0  0  0  0  0  0  0  0
   68.3795   51.5223   15.7449 C   0  0  0  0  0  0  0  0  0  0  0  0
   68.3241   52.8486   15.4679 C   0  0  0  0  0  0  0  0  0  0  0  0
   67.3996   53.2726   14.5373 C   0  0  0  0  0  0  0  0  0  0  0  0
   66.5508   52.4010   13.8974 C   0  0  0  0  0  0  0  0  0  0  0  0
   71.8124   53.9434   15.2306 C   0  0  0  0  0  0  0  0  0  0  0  0
   70.4667   55.9190   14.7402 C   0  0  0  0  0  0  0  0  0  0  0  0
   73.5780   60.1537   20.6144 C   0  0  1  0  0  0  0  0  0  0  0  0
   72.3946   60.9542   20.2030 C   0  0  0  0  0  0  0  0  0  0  0  0
   69.7666   58.6610   17.6965 C   0  0  0  0  0  0  0  0  0  0  0  0
   70.2231   57.8924   18.7366 C   0  0  0  0  0  0  0  0  0  0  0  0
   69.8579   58.1558   20.0443 C   0  0  0  0  0  0  0  0  0  0  0  0
   69.0126   59.2242   20.2785 C   0  0  0  0  0  0  0  0  0  0  0  0
   68.5566   59.9928   19.2341 C   0  0  0  0  0  0  0  0  0  0  0  0
   68.9326   59.7114   17.9498 C   0  0  0  0  0  0  0  0  0  0  0  0
   66.2449   48.9498   12.8294 C   0  0  0  0  0  0  0  0  0  0  0  0
   74.5613   52.9205   15.3188 C   0  0  0  0  0  0  0  0  0  0  0  0
   72.9420   54.6240   14.4936 C   0  0  2  0  0  0  0  0  0  0  0  0
   73.9056   53.5023   14.0777 C   0  0  0  0  0  0  0  0  0  0  0  0
   73.7165   55.5860   15.3257 C   0  0  0  0  0  0  0  0  0  0  0  0
   65.6770   50.1453   13.4848 C   0  0  2  0  0  0  0  0  0  0  0  0
   70.5897   54.6160   15.2449 N   0  0  0  0  0  0  0  0  0  0  0  0
   72.5896   58.2758   16.6917 N   0  0  0  0  0  0  0  0  0  0  0  0
   68.4312   55.1459   16.7285 O   0  0  0  0  0  0  0  0  0  0  0  0
   69.9456   53.4055   17.4481 O   0  0  0  0  0  0  0  0  0  0  0  0
   71.6191   57.9477   14.1256 O   0  0  0  0  0  0  0  0  0  0  0  0
   72.3580   58.2060   18.9750 O   0  0  0  0  0  0  0  0  0  0  0  0
   73.9162   59.6532   18.2505 O   0  0  0  0  0  0  0  0  0  0  0  0
   75.6822   61.1327   20.9034 O   0  0  0  0  0  0  0  0  0  0  0  0
   73.8583   62.3399   21.3828 O   0  0  0  0  0  0  0  0  0  0  0  0
   64.8683   50.8663   12.5871 O   0  0  0  0  0  0  0  0  0  0  0  0
   65.2406   48.1353   12.3475 O   0  0  0  0  0  0  0  0  0  0  0  0
   69.3420   54.0568   16.2107 S   0  0  1  0  0  6  0  0  0  0  0  0
  1  2  1  0
 16  1  1  0
  1 35  1  6
  2  8  1  6
  2 32  1  0
 32  3  1  0
  3 36  2  0
  3 37  1  0
  4  5  1  0
  4 17  1  0
  4 37  1  6
  5 38  1  0
 17  6  1  0
  6 38  1  6
  6 39  1  0
 18  7  1  0
  7 39  1  0
  8 19  1  0
 10  9  2  0
 14  9  1  0
  9 30  1  0
 11 10  1  0
 12 11  2  0
 12 13  1  0
 42 12  1  0
 13 14  2  0
 15 27  1  0
 31 15  1  0
 31 16  1  0
 17 18  1  6
 19 20  2  0
 19 24  1  0
 20 21  1  0
 21 22  2  0
 23 22  1  0
 24 23  2  0
 30 25  1  0
 25 41  1  0
 28 26  1  0
 27 28  1  0
 27 29  1  1
 30 40  1  6
 42 31  1  6
 42 33  2  0
 42 34  2  0
M  END
$$$$
