
     RDKit          3D

 42 45  0  0  0  0  0  0  0  0999 V2000
   70.1233   56.1596   16.1508 C   0  0  1  0  0  0  0  0  0  0  0  0
   71.2382   57.1772   15.8704 C   0  0  2  0  0  0  0  0  0  0  0  0
   72.0821   58.7484   17.6491 C   0  0  0  0  0  0  0  0  0  0  0  0
   72.6449   60.1171   19.6289 C   0  0  1  0  0  0  0  0  0  0  0  0
   73.2823   59.8315   20.9723 C   0  0  0  0  0  0  0  0  0  0  0  0
   74.6958   61.1905   19.9924 C   0  0  1  0  0  0  0  0  0  0  0  0
   75.9006   59.6151   18.9523 C   0  0  0  0  0  0  0  0  0  0  0  0
   72.2123   56.4885   14.9387 C   0  0  0  0  0  0  0  0  0  0  0  0
   67.5591   50.1269   14.0150 C   0  0  0  0  0  0  0  0  0  0  0  0
   66.7286   50.7515   13.1268 C   0  0  0  0  0  0  0  0  0  0  0  0
   66.7425   52.1438   12.9867 C   0  0  0  0  0  0  0  0  0  0  0  0
   67.5766   52.9175   13.7246 C   0  0  0  0  0  0  0  0  0  0  0  0
   68.4136   52.2870   14.6205 C   0  0  0  0  0  0  0  0  0  0  0  0
   68.4222   50.9216   14.7796 C   0  0  0  0  0  0  0  0  0  0  0  0
   67.0984   55.4422   16.0944 C   0  0  0  0  0  0  0  0  0  0  0  0
   69.1156   56.3208   15.0393 C   0  0  0  0  0  0  0  0  0  0  0  0
   73.8153   60.7072   18.8719 C   0  0  1  0  0  0  0  0  0  0  0  0
   74.6412   59.6995   18.1557 C   0  0  0  0  0  0  0  0  0  0  0  0
   73.2793   55.7792   15.7001 C   0  0  0  0  0  0  0  0  0  0  0  0
   73.2513   55.8995   17.0661 C   0  0  0  0  0  0  0  0  0  0  0  0
   74.1956   55.2813   17.8653 C   0  0  0  0  0  0  0  0  0  0  0  0
   75.1781   54.5315   17.2460 C   0  0  0  0  0  0  0  0  0  0  0  0
   75.2036   54.4127   15.8768 C   0  0  0  0  0  0  0  0  0  0  0  0
   74.2582   55.0341   15.1089 C   0  0  0  0  0  0  0  0  0  0  0  0
   67.5498   47.8243   13.0088 C   0  0  0  0  0  0  0  0  0  0  0  0
   66.6076   56.0391   18.8683 C   0  0  0  0  0  0  0  0  0  0  0  0
   66.5537   56.7932   16.4948 C   0  0  2  0  0  0  0  0  0  0  0  0
   67.1285   57.0789   17.8904 C   0  0  0  0  0  0  0  0  0  0  0  0
   65.0696   56.8389   16.6103 C   0  0  0  0  0  0  0  0  0  0  0  0
   67.6147   48.6742   14.2150 C   0  0  2  0  0  0  0  0  0  0  0  0
   68.0286   55.4343   15.0542 N   0  0  0  0  0  0  0  0  0  0  0  0
   71.9426   57.4633   17.1072 N   0  0  0  0  0  0  0  0  0  0  0  0
   68.6130   54.9838   12.4858 O   0  0  0  0  0  0  0  0  0  0  0  0
   66.2936   55.1273   13.1490 O   0  0  0  0  0  0  0  0  0  0  0  0
   70.7558   54.9157   16.1151 O   0  0  0  0  0  0  0  0  0  0  0  0
   72.2162   59.7348   16.9136 O   0  0  0  0  0  0  0  0  0  0  0  0
   72.0793   59.0003   19.0323 O   0  0  0  0  0  0  0  0  0  0  0  0
   73.9891   61.0181   21.1833 O   0  0  0  0  0  0  0  0  0  0  0  0
   75.8192   60.4282   20.0360 O   0  0  0  0  0  0  0  0  0  0  0  0
   66.6688   48.2552   15.1687 O   0  0  0  0  0  0  0  0  0  0  0  0
   67.8002   46.5055   13.3283 O   0  0  0  0  0  0  0  0  0  0  0  0
   67.6649   54.6576   13.6166 S   0  0  1  0  0  6  0  0  0  0  0  0
  1  2  1  0
 16  1  1  0
  1 35  1  6
  2  8  1  6
  2 32  1  0
 32  3  1  0
  3 36  2  0
  3 37  1  0
  4  5  1  0
  4 17  1  0
  4 37  1  6
  5 38  1  0
 17  6  1  0
  6 38  1  1
  6 39  1  0
 18  7  1  0
  7 39  1  0
  8 19  1  0
 10  9  2  0
 14  9  1  0
  9 30  1  0
 11 10  1  0
 12 11  2  0
 12 13  1  0
 42 12  1  0
 13 14  2  0
 15 27  1  0
 31 15  1  0
 31 16  1  0
 17 18  1  1
 19 20  2  0
 19 24  1  0
 20 21  1  0
 21 22  2  0
 23 22  1  0
 24 23  2  0
 30 25  1  0
 25 41  1  0
 28 26  1  0
 27 28  1  0
 27 29  1  1
 30 40  1  1
 42 31  1  1
 42 33  2  0
 42 34  2  0
M  END
$$$$
