
     RDKit          3D

 42 45  0  0  0  0  0  0  0  0999 V2000
   70.4261   57.4952   15.3745 C   0  0  1  0  0  0  0  0  0  0  0  0
   70.4969   57.8418   16.8685 C   0  0  2  0  0  0  0  0  0  0  0  0
   72.2487   58.7233   18.4492 C   0  0  0  0  0  0  0  0  0  0  0  0
   74.3586   59.5933   19.3984 C   0  0  1  0  0  0  0  0  0  0  0  0
   74.9682   60.5431   18.3892 C   0  0  0  0  0  0  0  0  0  0  0  0
   74.2911   61.8542   20.0102 C   0  0  1  0  0  0  0  0  0  0  0  0
   72.2139   62.1787   19.2387 C   0  0  0  0  0  0  0  0  0  0  0  0
   69.4359   58.8948   17.1071 C   0  0  0  0  0  0  0  0  0  0  0  0
   67.0916   51.6063   13.9092 C   0  0  0  0  0  0  0  0  0  0  0  0
   66.9801   52.8916   13.4572 C   0  0  0  0  0  0  0  0  0  0  0  0
   67.6556   53.9387   14.0943 C   0  0  0  0  0  0  0  0  0  0  0  0
   68.4400   53.7147   15.1774 C   0  0  0  0  0  0  0  0  0  0  0  0
   68.5517   52.4184   15.6331 C   0  0  0  0  0  0  0  0  0  0  0  0
   67.9004   51.3700   15.0277 C   0  0  0  0  0  0  0  0  0  0  0  0
   71.8397   54.1021   16.0166 C   0  0  0  0  0  0  0  0  0  0  0  0
   71.3745   56.3406   15.1639 C   0  0  0  0  0  0  0  0  0  0  0  0
   73.5761   60.5552   20.2666 C   0  0  1  0  0  0  0  0  0  0  0  0
   72.1853   60.7957   19.7993 C   0  0  0  0  0  0  0  0  0  0  0  0
   69.3168   59.2238   18.5558 C   0  0  0  0  0  0  0  0  0  0  0  0
   70.1194   58.5229   19.4194 C   0  0  0  0  0  0  0  0  0  0  0  0
   70.0861   58.7513   20.7830 C   0  0  0  0  0  0  0  0  0  0  0  0
   69.2146   59.7134   21.2580 C   0  0  0  0  0  0  0  0  0  0  0  0
   68.4115   60.4142   20.3902 C   0  0  0  0  0  0  0  0  0  0  0  0
   68.4633   60.1696   19.0458 C   0  0  0  0  0  0  0  0  0  0  0  0
   64.9755   50.5637   13.0438 C   0  0  0  0  0  0  0  0  0  0  0  0
   72.8387   51.5183   14.7121 C   0  0  0  0  0  0  0  0  0  0  0  0
   73.0847   53.9538   15.1738 C   0  0  2  0  0  0  0  0  0  0  0  0
   72.7424   52.9071   14.1030 C   0  0  0  0  0  0  0  0  0  0  0  0
   74.2680   53.4484   15.9235 C   0  0  0  0  0  0  0  0  0  0  0  0
   66.4268   50.4520   13.2934 C   0  0  2  0  0  0  0  0  0  0  0  0
   70.9360   55.0873   15.6164 N   0  0  0  0  0  0  0  0  0  0  0  0
   71.7856   58.4455   17.1558 N   0  0  0  0  0  0  0  0  0  0  0  0
   68.5394   56.2400   15.8785 O   0  0  0  0  0  0  0  0  0  0  0  0
   69.2322   54.5995   17.5121 O   0  0  0  0  0  0  0  0  0  0  0  0
   69.0960   57.1345   15.1526 O   0  0  0  0  0  0  0  0  0  0  0  0
   71.4707   59.1092   19.3312 O   0  0  0  0  0  0  0  0  0  0  0  0
   73.5963   58.5863   18.8256 O   0  0  0  0  0  0  0  0  0  0  0  0
   75.4118   61.5674   19.2296 O   0  0  0  0  0  0  0  0  0  0  0  0
   73.4720   62.6828   19.3121 O   0  0  0  0  0  0  0  0  0  0  0  0
   66.7208   49.2648   13.9889 O   0  0  0  0  0  0  0  0  0  0  0  0
   64.5289   49.5018   12.2841 O   0  0  0  0  0  0  0  0  0  0  0  0
   69.3203   54.9555   16.0338 S   0  0  1  0  0  6  0  0  0  0  0  0
  1  2  1  0
 16  1  1  0
  1 35  1  1
  2  8  1  6
  2 32  1  0
 32  3  1  0
  3 36  2  0
  3 37  1  0
  4  5  1  0
  4 17  1  0
  4 37  1  6
  5 38  1  0
 17  6  1  0
  6 38  1  6
  6 39  1  0
 18  7  1  0
  7 39  1  0
  8 19  1  0
 10  9  2  0
 14  9  1  0
  9 30  1  0
 11 10  1  0
 12 11  2  0
 12 13  1  0
 42 12  1  0
 13 14  2  0
 15 27  1  0
 31 15  1  0
 31 16  1  0
 17 18  1  6
 19 20  2  0
 19 24  1  0
 20 21  1  0
 21 22  2  0
 23 22  1  0
 24 23  2  0
 30 25  1  0
 25 41  1  0
 28 26  1  0
 27 28  1  0
 27 29  1  1
 30 40  1  1
 42 31  1  6
 42 33  2  0
 42 34  2  0
M  END
$$$$
