
     RDKit          3D

 42 45  0  0  0  0  0  0  0  0999 V2000
   70.7428   57.2236   15.7131 C   0  0  1  0  0  0  0  0  0  0  0  0
   70.0288   57.3610   17.0653 C   0  0  2  0  0  0  0  0  0  0  0  0
   72.3636   57.8722   17.8603 C   0  0  0  0  0  0  0  0  0  0  0  0
   74.0004   59.4799   18.7801 C   0  0  1  0  0  0  0  0  0  0  0  0
   74.8381   60.6716   18.3670 C   0  0  0  0  0  0  0  0  0  0  0  0
   74.3199   61.0858   20.4562 C   0  0  1  0  0  0  0  0  0  0  0  0
   72.3918   62.1483   20.0456 C   0  0  0  0  0  0  0  0  0  0  0  0
   68.9808   58.4375   16.8805 C   0  0  0  0  0  0  0  0  0  0  0  0
   66.8832   51.7247   13.5078 C   0  0  0  0  0  0  0  0  0  0  0  0
   66.6240   53.0661   13.4611 C   0  0  0  0  0  0  0  0  0  0  0  0
   67.3723   53.9697   14.2242 C   0  0  0  0  0  0  0  0  0  0  0  0
   68.3754   53.5469   15.0327 C   0  0  0  0  0  0  0  0  0  0  0  0
   68.6359   52.1939   15.0797 C   0  0  0  0  0  0  0  0  0  0  0  0
   67.9180   51.2831   14.3416 C   0  0  0  0  0  0  0  0  0  0  0  0
   71.6642   53.6457   15.0875 C   0  0  0  0  0  0  0  0  0  0  0  0
   71.5868   55.9762   15.8065 C   0  0  0  0  0  0  0  0  0  0  0  0
   73.3600   60.0011   20.0487 C   0  0  1  0  0  0  0  0  0  0  0  0
   72.0702   60.7071   19.8280 C   0  0  0  0  0  0  0  0  0  0  0  0
   68.4722   58.9279   18.1927 C   0  0  0  0  0  0  0  0  0  0  0  0
   69.0499   58.3995   19.3189 C   0  0  0  0  0  0  0  0  0  0  0  0
   68.6507   58.7867   20.5852 C   0  0  0  0  0  0  0  0  0  0  0  0
   67.6447   59.7292   20.6879 C   0  0  0  0  0  0  0  0  0  0  0  0
   67.0676   60.2570   19.5574 C   0  0  0  0  0  0  0  0  0  0  0  0
   67.4804   59.8574   18.3166 C   0  0  0  0  0  0  0  0  0  0  0  0
   66.3189   49.3037   13.1409 C   0  0  0  0  0  0  0  0  0  0  0  0
   73.0194   51.3716   14.7605 C   0  0  0  0  0  0  0  0  0  0  0  0
   73.1327   53.8597   14.8047 C   0  0  2  0  0  0  0  0  0  0  0  0
   73.6067   52.5938   14.0749 C   0  0  0  0  0  0  0  0  0  0  0  0
   73.9710   54.0051   16.0269 C   0  0  0  0  0  0  0  0  0  0  0  0
   66.1545   50.7137   12.7331 C   0  0  2  0  0  0  0  0  0  0  0  0
   70.9441   54.7680   15.4990 N   0  0  0  0  0  0  0  0  0  0  0  0
   70.9763   57.8376   18.0568 N   0  0  0  0  0  0  0  0  0  0  0  0
   68.6162   55.9067   16.1515 O   0  0  0  0  0  0  0  0  0  0  0  0
   69.3741   53.9899   17.4133 O   0  0  0  0  0  0  0  0  0  0  0  0
   69.7156   57.0983   14.7762 O   0  0  0  0  0  0  0  0  0  0  0  0
   73.0098   56.8258   17.7211 O   0  0  0  0  0  0  0  0  0  0  0  0
   73.0998   59.0689   17.8090 O   0  0  0  0  0  0  0  0  0  0  0  0
   75.4130   61.0233   19.5909 O   0  0  0  0  0  0  0  0  0  0  0  0
   73.7150   62.2932   20.3106 O   0  0  0  0  0  0  0  0  0  0  0  0
   66.3901   50.8620   11.3539 O   0  0  0  0  0  0  0  0  0  0  0  0
   65.5895   48.4704   12.3176 O   0  0  0  0  0  0  0  0  0  0  0  0
   69.3613   54.5987   16.0172 S   0  0  1  0  0  6  0  0  0  0  0  0
  1  2  1  0
 16  1  1  0
  1 35  1  6
  2  8  1  6
  2 32  1  0
 32  3  1  0
  3 36  2  0
  3 37  1  0
  4  5  1  0
  4 17  1  0
  4 37  1  6
  5 38  1  0
 17  6  1  0
  6 38  1  6
  6 39  1  0
 18  7  1  0
  7 39  1  0
  8 19  1  0
 10  9  2  0
 14  9  1  0
  9 30  1  0
 11 10  1  0
 12 11  2  0
 12 13  1  0
 42 12  1  0
 13 14  2  0
 15 27  1  0
 31 15  1  0
 31 16  1  0
 17 18  1  6
 19 20  2  0
 19 24  1  0
 20 21  1  0
 21 22  2  0
 23 22  1  0
 24 23  2  0
 30 25  1  0
 25 41  1  0
 28 26  1  0
 27 28  1  0
 27 29  1  1
 30 40  1  6
 42 31  1  6
 42 33  2  0
 42 34  2  0
M  END
$$$$
