
     RDKit          3D

 42 45  0  0  0  0  0  0  0  0999 V2000
   71.1409   57.4896   15.0841 C   0  0  1  0  0  0  0  0  0  0  0  0
   70.9133   57.9370   16.5350 C   0  0  2  0  0  0  0  0  0  0  0  0
   73.0593   58.7332   17.5865 C   0  0  0  0  0  0  0  0  0  0  0  0
   74.1806   59.8266   19.4987 C   0  0  1  0  0  0  0  0  0  0  0  0
   74.9417   60.6310   18.4662 C   0  0  0  0  0  0  0  0  0  0  0  0
   74.6343   62.0409   20.1162 C   0  0  1  0  0  0  0  0  0  0  0  0
   72.6488   62.8197   19.4331 C   0  0  0  0  0  0  0  0  0  0  0  0
   69.5378   58.5680   16.5702 C   0  0  0  0  0  0  0  0  0  0  0  0
   66.8371   51.1214   13.6483 C   0  0  0  0  0  0  0  0  0  0  0  0
   68.1926   50.9612   13.5741 C   0  0  0  0  0  0  0  0  0  0  0  0
   69.0586   51.8674   14.1966 C   0  0  0  0  0  0  0  0  0  0  0  0
   68.5843   52.9309   14.8913 C   0  0  0  0  0  0  0  0  0  0  0  0
   67.2171   53.0921   14.9654 C   0  0  0  0  0  0  0  0  0  0  0  0
   66.3423   52.2184   14.3645 C   0  0  0  0  0  0  0  0  0  0  0  0
   71.5650   54.7647   14.0477 C   0  0  0  0  0  0  0  0  0  0  0  0
   70.0294   56.5214   14.7619 C   0  0  0  0  0  0  0  0  0  0  0  0
   73.6635   60.9269   20.4004 C   0  0  1  0  0  0  0  0  0  0  0  0
   72.3412   61.4705   19.9923 C   0  0  0  0  0  0  0  0  0  0  0  0
   69.1916   59.0339   17.9428 C   0  0  0  0  0  0  0  0  0  0  0  0
   68.9128   58.0667   18.8746 C   0  0  0  0  0  0  0  0  0  0  0  0
   68.5801   58.3926   20.1768 C   0  0  0  0  0  0  0  0  0  0  0  0
   68.5353   59.7312   20.5187 C   0  0  0  0  0  0  0  0  0  0  0  0
   68.8152   60.6983   19.5829 C   0  0  0  0  0  0  0  0  0  0  0  0
   69.1416   60.3499   18.3015 C   0  0  0  0  0  0  0  0  0  0  0  0
   65.8796   48.8043   13.4787 C   0  0  0  0  0  0  0  0  0  0  0  0
   71.7079   52.2185   14.0738 C   0  0  0  0  0  0  0  0  0  0  0  0
   72.6969   54.3307   14.9490 C   0  0  2  0  0  0  0  0  0  0  0  0
   72.9841   52.8664   14.5840 C   0  0  0  0  0  0  0  0  0  0  0  0
   72.3649   54.3673   16.4003 C   0  0  0  0  0  0  0  0  0  0  0  0
   65.8616   50.2128   13.0347 C   0  0  2  0  0  0  0  0  0  0  0  0
   70.3893   55.1680   14.6822 N   0  0  0  0  0  0  0  0  0  0  0  0
   71.8774   58.9692   16.8709 N   0  0  0  0  0  0  0  0  0  0  0  0
   68.7211   54.7907   16.7354 O   0  0  0  0  0  0  0  0  0  0  0  0
   70.6229   53.3202   16.4892 O   0  0  0  0  0  0  0  0  0  0  0  0
   71.0570   58.6613   14.3301 O   0  0  0  0  0  0  0  0  0  0  0  0
   74.0539   58.2547   17.0264 O   0  0  0  0  0  0  0  0  0  0  0  0
   73.1939   59.0167   18.9569 O   0  0  0  0  0  0  0  0  0  0  0  0
   75.6324   61.5245   19.2888 O   0  0  0  0  0  0  0  0  0  0  0  0
   73.9886   63.0359   19.4543 O   0  0  0  0  0  0  0  0  0  0  0  0
   65.9065   50.2911   11.6306 O   0  0  0  0  0  0  0  0  0  0  0  0
   64.9296   48.0679   12.8010 O   0  0  0  0  0  0  0  0  0  0  0  0
   69.5863   54.1094   15.7004 S   0  0  1  0  0  6  0  0  0  0  0  0
  1  2  1  0
 16  1  1  0
  1 35  1  6
  2  8  1  6
  2 32  1  0
 32  3  1  0
  3 36  2  0
  3 37  1  0
  4  5  1  0
  4 17  1  0
  4 37  1  6
  5 38  1  0
 17  6  1  0
  6 38  1  6
  6 39  1  0
 18  7  1  0
  7 39  1  0
  8 19  1  0
 10  9  2  0
 14  9  1  0
  9 30  1  0
 11 10  1  0
 12 11  2  0
 12 13  1  0
 42 12  1  0
 13 14  2  0
 15 27  1  0
 31 15  1  0
 31 16  1  0
 17 18  1  6
 19 20  2  0
 19 24  1  0
 20 21  1  0
 21 22  2  0
 23 22  1  0
 24 23  2  0
 30 25  1  0
 25 41  1  0
 28 26  1  0
 27 28  1  0
 27 29  1  1
 30 40  1  6
 42 31  1  6
 42 33  2  0
 42 34  2  0
M  END
$$$$
