
     RDKit          3D

 42 45  0  0  0  0  0  0  0  0999 V2000
   70.4277   57.6404   14.8993 C   0  0  1  0  0  0  0  0  0  0  0  0
   70.4477   57.8529   16.4197 C   0  0  2  0  0  0  0  0  0  0  0  0
   72.0453   58.8320   18.1030 C   0  0  0  0  0  0  0  0  0  0  0  0
   74.1484   59.4161   19.2630 C   0  0  1  0  0  0  0  0  0  0  0  0
   74.6806   60.3785   18.2222 C   0  0  0  0  0  0  0  0  0  0  0  0
   74.3316   61.6388   19.9814 C   0  0  1  0  0  0  0  0  0  0  0  0
   72.1971   62.1422   19.5277 C   0  0  0  0  0  0  0  0  0  0  0  0
   69.4004   58.9063   16.7113 C   0  0  0  0  0  0  0  0  0  0  0  0
   67.3267   51.7245   13.4211 C   0  0  0  0  0  0  0  0  0  0  0  0
   68.0791   51.4074   14.5175 C   0  0  0  0  0  0  0  0  0  0  0  0
   68.7206   52.4040   15.2617 C   0  0  0  0  0  0  0  0  0  0  0  0
   68.6181   53.7127   14.9216 C   0  0  0  0  0  0  0  0  0  0  0  0
   67.8596   54.0318   13.8156 C   0  0  0  0  0  0  0  0  0  0  0  0
   67.2181   53.0748   13.0657 C   0  0  0  0  0  0  0  0  0  0  0  0
   71.9885   54.5935   16.0835 C   0  0  0  0  0  0  0  0  0  0  0  0
   71.2763   56.4215   14.6325 C   0  0  0  0  0  0  0  0  0  0  0  0
   73.5658   60.3776   20.2765 C   0  0  1  0  0  0  0  0  0  0  0  0
   72.1451   60.7350   20.0225 C   0  0  0  0  0  0  0  0  0  0  0  0
   69.1787   59.0569   18.1774 C   0  0  0  0  0  0  0  0  0  0  0  0
   69.3961   60.3005   18.7134 C   0  0  0  0  0  0  0  0  0  0  0  0
   69.2192   60.5467   20.0628 C   0  0  0  0  0  0  0  0  0  0  0  0
   68.8138   59.4968   20.8654 C   0  0  0  0  0  0  0  0  0  0  0  0
   68.5966   58.2515   20.3255 C   0  0  0  0  0  0  0  0  0  0  0  0
   68.7786   58.0341   18.9878 C   0  0  0  0  0  0  0  0  0  0  0  0
   65.2471   51.0937   12.1596 C   0  0  0  0  0  0  0  0  0  0  0  0
   73.5096   52.3588   14.2804 C   0  0  0  0  0  0  0  0  0  0  0  0
   73.3486   54.5647   15.4266 C   0  0  2  0  0  0  0  0  0  0  0  0
   73.1540   53.8244   14.0948 C   0  0  0  0  0  0  0  0  0  0  0  0
   74.3801   53.8191   16.2000 C   0  0  0  0  0  0  0  0  0  0  0  0
   66.6144   50.7434   12.5944 C   0  0  2  0  0  0  0  0  0  0  0  0
   70.9865   55.2839   15.4003 N   0  0  0  0  0  0  0  0  0  0  0  0
   71.7366   58.3977   16.8066 N   0  0  0  0  0  0  0  0  0  0  0  0
   68.5001   56.2387   15.6170 O   0  0  0  0  0  0  0  0  0  0  0  0
   69.2947   54.6621   17.2672 O   0  0  0  0  0  0  0  0  0  0  0  0
   69.0844   57.4290   14.5843 O   0  0  0  0  0  0  0  0  0  0  0  0
   71.2571   59.5458   18.7363 O   0  0  0  0  0  0  0  0  0  0  0  0
   73.2427   58.4951   18.7582 O   0  0  0  0  0  0  0  0  0  0  0  0
   75.3097   61.3227   19.0376 O   0  0  0  0  0  0  0  0  0  0  0  0
   73.4867   62.5573   19.4452 O   0  0  0  0  0  0  0  0  0  0  0  0
   66.6349   49.4677   13.1874 O   0  0  0  0  0  0  0  0  0  0  0  0
   64.7272   50.1078   11.3461 O   0  0  0  0  0  0  0  0  0  0  0  0
   69.3796   55.0220   15.7897 S   0  0  1  0  0  6  0  0  0  0  0  0
  1  2  1  0
 16  1  1  0
  1 35  1  1
  2  8  1  6
  2 32  1  0
 32  3  1  0
  3 36  2  0
  3 37  1  0
  4  5  1  0
  4 17  1  0
  4 37  1  6
  5 38  1  0
 17  6  1  0
  6 38  1  6
  6 39  1  0
 18  7  1  0
  7 39  1  0
  8 19  1  0
 10  9  2  0
 14  9  1  0
  9 30  1  0
 11 10  1  0
 12 11  2  0
 12 13  1  0
 42 12  1  0
 13 14  2  0
 15 27  1  0
 31 15  1  0
 31 16  1  0
 17 18  1  6
 19 20  2  0
 19 24  1  0
 20 21  1  0
 21 22  2  0
 23 22  1  0
 24 23  2  0
 30 25  1  0
 25 41  1  0
 28 26  1  0
 27 28  1  0
 27 29  1  1
 30 40  1  1
 42 31  1  6
 42 33  2  0
 42 34  2  0
M  END
$$$$
