
     RDKit          3D

 42 45  0  0  0  0  0  0  0  0999 V2000
   71.1345   57.3268   15.1646 C   0  0  1  0  0  0  0  0  0  0  0  0
   70.8540   57.6348   16.6423 C   0  0  2  0  0  0  0  0  0  0  0  0
   72.2274   58.1725   18.6842 C   0  0  0  0  0  0  0  0  0  0  0  0
   74.0996   59.0878   20.0134 C   0  0  1  0  0  0  0  0  0  0  0  0
   74.5986   60.1118   19.0159 C   0  0  0  0  0  0  0  0  0  0  0  0
   73.8579   61.3182   20.6894 C   0  0  1  0  0  0  0  0  0  0  0  0
   71.7402   61.4839   19.9800 C   0  0  0  0  0  0  0  0  0  0  0  0
   70.1805   58.9902   16.6696 C   0  0  0  0  0  0  0  0  0  0  0  0
   66.3414   51.4766   14.0619 C   0  0  0  0  0  0  0  0  0  0  0  0
   67.3588   51.0498   14.8691 C   0  0  0  0  0  0  0  0  0  0  0  0
   68.1590   51.9653   15.5619 C   0  0  0  0  0  0  0  0  0  0  0  0
   67.9533   53.3015   15.4560 C   0  0  0  0  0  0  0  0  0  0  0  0
   66.9274   53.7313   14.6415 C   0  0  0  0  0  0  0  0  0  0  0  0
   66.1252   52.8556   13.9491 C   0  0  0  0  0  0  0  0  0  0  0  0
   71.4970   54.4496   15.7216 C   0  0  0  0  0  0  0  0  0  0  0  0
   70.1561   56.2499   14.7650 C   0  0  0  0  0  0  0  0  0  0  0  0
   73.2627   59.9568   20.9274 C   0  0  1  0  0  0  0  0  0  0  0  0
   71.8442   60.0896   20.5024 C   0  0  0  0  0  0  0  0  0  0  0  0
   69.5013   59.2303   17.9742 C   0  0  0  0  0  0  0  0  0  0  0  0
   69.0792   58.1244   18.6670 C   0  0  0  0  0  0  0  0  0  0  0  0
   68.4382   58.2374   19.8872 C   0  0  0  0  0  0  0  0  0  0  0  0
   68.2316   59.5061   20.3958 C   0  0  0  0  0  0  0  0  0  0  0  0
   68.6557   60.6127   19.6993 C   0  0  0  0  0  0  0  0  0  0  0  0
   69.2873   60.4739   18.4944 C   0  0  0  0  0  0  0  0  0  0  0  0
   65.9357   49.2141   13.0465 C   0  0  0  0  0  0  0  0  0  0  0  0
   73.6089   52.4936   14.6014 C   0  0  0  0  0  0  0  0  0  0  0  0
   72.6103   54.7708   14.7523 C   0  0  2  0  0  0  0  0  0  0  0  0
   73.7967   53.8896   15.1714 C   0  0  0  0  0  0  0  0  0  0  0  0
   73.0708   56.1860   14.8048 C   0  0  0  0  0  0  0  0  0  0  0  0
   65.4510   50.5840   13.3109 C   0  0  2  0  0  0  0  0  0  0  0  0
   70.2576   55.0327   15.4548 N   0  0  0  0  0  0  0  0  0  0  0  0
   72.1158   57.7583   17.3498 N   0  0  0  0  0  0  0  0  0  0  0  0
   67.9504   55.6295   16.6639 O   0  0  0  0  0  0  0  0  0  0  0  0
   69.3430   53.8889   17.5972 O   0  0  0  0  0  0  0  0  0  0  0  0
   70.8990   58.5297   14.4967 O   0  0  0  0  0  0  0  0  0  0  0  0
   71.2666   58.6880   19.2699 O   0  0  0  0  0  0  0  0  0  0  0  0
   73.4099   58.0345   19.4321 O   0  0  0  0  0  0  0  0  0  0  0  0
   74.9769   61.1482   19.8731 O   0  0  0  0  0  0  0  0  0  0  0  0
   72.9526   62.0915   20.0356 O   0  0  0  0  0  0  0  0  0  0  0  0
   65.0065   51.1912   12.1220 O   0  0  0  0  0  0  0  0  0  0  0  0
   65.0289   48.5174   12.2743 O   0  0  0  0  0  0  0  0  0  0  0  0
   68.8975   54.5153   16.2823 S   0  0  1  0  0  6  0  0  0  0  0  0
  1  2  1  0
 16  1  1  0
  1 35  1  6
  2  8  1  6
  2 32  1  0
 32  3  1  0
  3 36  2  0
  3 37  1  0
  4  5  1  0
  4 17  1  0
  4 37  1  6
  5 38  1  0
 17  6  1  0
  6 38  1  6
  6 39  1  0
 18  7  1  0
  7 39  1  0
  8 19  1  0
 10  9  2  0
 14  9  1  0
  9 30  1  0
 11 10  1  0
 12 11  2  0
 12 13  1  0
 42 12  1  0
 13 14  2  0
 15 27  1  0
 31 15  1  0
 31 16  1  0
 17 18  1  6
 19 20  2  0
 19 24  1  0
 20 21  1  0
 21 22  2  0
 23 22  1  0
 24 23  2  0
 30 25  1  0
 25 41  1  0
 28 26  1  0
 27 28  1  0
 27 29  1  1
 30 40  1  6
 42 31  1  6
 42 33  2  0
 42 34  2  0
M  END
$$$$
