
     RDKit          3D

 42 45  0  0  0  0  0  0  0  0999 V2000
   71.1366   57.2825   15.8118 C   0  0  1  0  0  0  0  0  0  0  0  0
   70.3024   57.4212   17.0931 C   0  0  2  0  0  0  0  0  0  0  0  0
   72.5141   58.1324   18.0664 C   0  0  0  0  0  0  0  0  0  0  0  0
   73.6313   60.3052   18.4409 C   0  0  1  0  0  0  0  0  0  0  0  0
   72.8674   61.5000   18.9712 C   0  0  0  0  0  0  0  0  0  0  0  0
   74.1354   60.8920   20.6527 C   0  0  1  0  0  0  0  0  0  0  0  0
   72.7003   59.4258   21.5505 C   0  0  0  0  0  0  0  0  0  0  0  0
   69.4220   58.6363   16.8930 C   0  0  0  0  0  0  0  0  0  0  0  0
   67.0140   51.3415   13.6188 C   0  0  0  0  0  0  0  0  0  0  0  0
   66.5309   52.6202   13.6275 C   0  0  0  0  0  0  0  0  0  0  0  0
   67.2224   53.6454   14.2827 C   0  0  0  0  0  0  0  0  0  0  0  0
   68.3903   53.4059   14.9288 C   0  0  0  0  0  0  0  0  0  0  0  0
   68.8768   52.1160   14.9200 C   0  0  0  0  0  0  0  0  0  0  0  0
   68.2197   51.0890   14.2849 C   0  0  0  0  0  0  0  0  0  0  0  0
   71.3599   54.0677   14.1521 C   0  0  0  0  0  0  0  0  0  0  0  0
   71.6364   55.8591   15.7858 C   0  0  0  0  0  0  0  0  0  0  0  0
   74.1629   59.7070   19.7257 C   0  0  1  0  0  0  0  0  0  0  0  0
   73.2479   58.7187   20.3555 C   0  0  0  0  0  0  0  0  0  0  0  0
   68.8646   59.1194   18.1879 C   0  0  0  0  0  0  0  0  0  0  0  0
   68.0042   60.1861   18.1339 C   0  0  0  0  0  0  0  0  0  0  0  0
   67.4319   60.7115   19.2781 C   0  0  0  0  0  0  0  0  0  0  0  0
   67.7526   60.1282   20.4897 C   0  0  0  0  0  0  0  0  0  0  0  0
   68.6152   59.0593   20.5408 C   0  0  0  0  0  0  0  0  0  0  0  0
   69.1678   58.5584   19.3947 C   0  0  0  0  0  0  0  0  0  0  0  0
   64.8826   50.1620   13.0023 C   0  0  0  0  0  0  0  0  0  0  0  0
   74.4213   52.3243   12.9956 C   0  0  0  0  0  0  0  0  0  0  0  0
   72.8325   53.7536   14.2755 C   0  0  2  0  0  0  0  0  0  0  0  0
   73.0273   52.3895   13.5967 C   0  0  0  0  0  0  0  0  0  0  0  0
   73.3087   53.6202   15.6802 C   0  0  0  0  0  0  0  0  0  0  0  0
   66.3577   50.2135   12.9478 C   0  0  2  0  0  0  0  0  0  0  0  0
   70.8293   54.9304   15.1121 N   0  0  0  0  0  0  0  0  0  0  0  0
   71.1881   57.7011   18.2089 N   0  0  0  0  0  0  0  0  0  0  0  0
   68.4433   55.8430   15.8964 O   0  0  0  0  0  0  0  0  0  0  0  0
   69.5126   54.1043   17.1901 O   0  0  0  0  0  0  0  0  0  0  0  0
   70.2440   57.5488   14.7721 O   0  0  0  0  0  0  0  0  0  0  0  0
   73.4576   57.3597   18.2781 O   0  0  0  0  0  0  0  0  0  0  0  0
   72.8564   59.4408   17.6824 O   0  0  0  0  0  0  0  0  0  0  0  0
   73.7860   62.0091   19.8927 O   0  0  0  0  0  0  0  0  0  0  0  0
   73.1838   60.6931   21.6012 O   0  0  0  0  0  0  0  0  0  0  0  0
   66.9124   48.9863   13.3553 O   0  0  0  0  0  0  0  0  0  0  0  0
   64.3372   50.5401   11.7924 O   0  0  0  0  0  0  0  0  0  0  0  0
   69.3216   54.6197   15.7697 S   0  0  1  0  0  6  0  0  0  0  0  0
  1  2  1  0
 16  1  1  0
  1 35  1  6
  2  8  1  6
  2 32  1  0
 32  3  1  0
  3 36  2  0
  3 37  1  0
  4  5  1  0
  4 17  1  0
  4 37  1  1
  5 38  1  0
 17  6  1  0
  6 38  1  6
  6 39  1  0
 18  7  1  0
  7 39  1  0
  8 19  1  0
 10  9  2  0
 14  9  1  0
  9 30  1  0
 11 10  1  0
 12 11  2  0
 12 13  1  0
 42 12  1  0
 13 14  2  0
 15 27  1  0
 31 15  1  0
 31 16  1  0
 17 18  1  1
 19 20  2  0
 19 24  1  0
 20 21  1  0
 21 22  2  0
 23 22  1  0
 24 23  2  0
 30 25  1  0
 25 41  1  0
 28 26  1  0
 27 28  1  0
 27 29  1  1
 30 40  1  1
 42 31  1  6
 42 33  2  0
 42 34  2  0
M  END
$$$$
