
     RDKit          3D

 42 45  0  0  0  0  0  0  0  0999 V2000
   71.2288   57.4602   15.0858 C   0  0  1  0  0  0  0  0  0  0  0  0
   70.8473   57.8612   16.5179 C   0  0  2  0  0  0  0  0  0  0  0  0
   72.6751   58.2885   18.1974 C   0  0  0  0  0  0  0  0  0  0  0  0
   74.5894   59.5158   19.1664 C   0  0  1  0  0  0  0  0  0  0  0  0
   75.1712   60.7151   18.4482 C   0  0  0  0  0  0  0  0  0  0  0  0
   74.1324   61.5819   20.1729 C   0  0  1  0  0  0  0  0  0  0  0  0
   72.1336   61.8133   19.1898 C   0  0  0  0  0  0  0  0  0  0  0  0
   69.6217   58.7413   16.3963 C   0  0  0  0  0  0  0  0  0  0  0  0
   67.0157   51.4275   13.4821 C   0  0  0  0  0  0  0  0  0  0  0  0
   66.5362   52.7060   13.5462 C   0  0  0  0  0  0  0  0  0  0  0  0
   67.1527   53.6651   14.3578 C   0  0  0  0  0  0  0  0  0  0  0  0
   68.2421   53.3597   15.1053 C   0  0  0  0  0  0  0  0  0  0  0  0
   68.7250   52.0700   15.0406 C   0  0  0  0  0  0  0  0  0  0  0  0
   68.1405   51.1072   14.2525 C   0  0  0  0  0  0  0  0  0  0  0  0
   71.7201   54.7354   15.9764 C   0  0  0  0  0  0  0  0  0  0  0  0
   70.3340   56.3017   14.7195 C   0  0  0  0  0  0  0  0  0  0  0  0
   73.5836   60.1839   20.0791 C   0  0  1  0  0  0  0  0  0  0  0  0
   72.2362   60.3514   19.4732 C   0  0  0  0  0  0  0  0  0  0  0  0
   69.1179   59.1548   17.7365 C   0  0  0  0  0  0  0  0  0  0  0  0
   68.6671   58.1587   18.5645 C   0  0  0  0  0  0  0  0  0  0  0  0
   68.1790   58.4355   19.8286 C   0  0  0  0  0  0  0  0  0  0  0  0
   68.1569   59.7549   20.2403 C   0  0  0  0  0  0  0  0  0  0  0  0
   68.6093   60.7512   19.4083 C   0  0  0  0  0  0  0  0  0  0  0  0
   69.0872   60.4511   18.1627 C   0  0  0  0  0  0  0  0  0  0  0  0
   65.0003   50.4772   12.3207 C   0  0  0  0  0  0  0  0  0  0  0  0
   73.2831   52.6222   13.2747 C   0  0  0  0  0  0  0  0  0  0  0  0
   72.7654   54.4034   14.9375 C   0  0  2  0  0  0  0  0  0  0  0  0
   72.5183   52.9379   14.5492 C   0  0  0  0  0  0  0  0  0  0  0  0
   74.1661   54.4988   15.4342 C   0  0  0  0  0  0  0  0  0  0  0  0
   66.4358   50.3670   12.6501 C   0  0  2  0  0  0  0  0  0  0  0  0
   70.4751   55.1402   15.4932 N   0  0  0  0  0  0  0  0  0  0  0  0
   71.9121   58.6689   17.0849 N   0  0  0  0  0  0  0  0  0  0  0  0
   68.0636   55.5213   16.5798 O   0  0  0  0  0  0  0  0  0  0  0  0
   69.4453   53.7181   17.4041 O   0  0  0  0  0  0  0  0  0  0  0  0
   70.9686   58.5941   14.3145 O   0  0  0  0  0  0  0  0  0  0  0  0
   72.1571   57.6801   19.1427 O   0  0  0  0  0  0  0  0  0  0  0  0
   74.0486   58.5648   18.3142 O   0  0  0  0  0  0  0  0  0  0  0  0
   75.3651   61.5916   19.5188 O   0  0  0  0  0  0  0  0  0  0  0  0
   73.2907   62.4343   19.5328 O   0  0  0  0  0  0  0  0  0  0  0  0
   66.7288   49.0934   13.1715 O   0  0  0  0  0  0  0  0  0  0  0  0
   64.5590   49.3381   11.6790 O   0  0  0  0  0  0  0  0  0  0  0  0
   69.0767   54.4885   16.1430 S   0  0  1  0  0  6  0  0  0  0  0  0
  1  2  1  0
 16  1  1  0
  1 35  1  6
  2  8  1  6
  2 32  1  0
 32  3  1  0
  3 36  2  0
  3 37  1  0
  4  5  1  0
  4 17  1  0
  4 37  1  6
  5 38  1  0
 17  6  1  0
  6 38  1  6
  6 39  1  0
 18  7  1  0
  7 39  1  0
  8 19  1  0
 10  9  2  0
 14  9  1  0
  9 30  1  0
 11 10  1  0
 12 11  2  0
 12 13  1  0
 42 12  1  0
 13 14  2  0
 15 27  1  0
 31 15  1  0
 31 16  1  0
 17 18  1  6
 19 20  2  0
 19 24  1  0
 20 21  1  0
 21 22  2  0
 23 22  1  0
 24 23  2  0
 30 25  1  0
 25 41  1  0
 28 26  1  0
 27 28  1  0
 27 29  1  1
 30 40  1  1
 42 31  1  6
 42 33  2  0
 42 34  2  0
M  END
$$$$
