
     RDKit          3D

 42 45  0  0  0  0  0  0  0  0999 V2000
   71.1389   57.0971   15.4095 C   0  0  1  0  0  0  0  0  0  0  0  0
   70.6675   57.5045   16.8127 C   0  0  2  0  0  0  0  0  0  0  0  0
   72.5211   57.9628   18.4555 C   0  0  0  0  0  0  0  0  0  0  0  0
   74.3894   59.1960   19.5035 C   0  0  1  0  0  0  0  0  0  0  0  0
   75.0875   60.4158   18.9402 C   0  0  0  0  0  0  0  0  0  0  0  0
   73.9617   61.1925   20.6532 C   0  0  1  0  0  0  0  0  0  0  0  0
   72.0617   61.6228   19.5488 C   0  0  0  0  0  0  0  0  0  0  0  0
   69.4150   58.3308   16.6127 C   0  0  0  0  0  0  0  0  0  0  0  0
   66.3449   51.0406   13.7377 C   0  0  0  0  0  0  0  0  0  0  0  0
   67.3668   50.7256   14.5893 C   0  0  0  0  0  0  0  0  0  0  0  0
   68.1063   51.7282   15.2267 C   0  0  0  0  0  0  0  0  0  0  0  0
   67.8355   53.0410   15.0218 C   0  0  0  0  0  0  0  0  0  0  0  0
   66.8052   53.3582   14.1625 C   0  0  0  0  0  0  0  0  0  0  0  0
   66.0616   52.3951   13.5225 C   0  0  0  0  0  0  0  0  0  0  0  0
   71.0112   54.2362   14.4597 C   0  0  0  0  0  0  0  0  0  0  0  0
   69.9628   56.4205   14.7493 C   0  0  0  0  0  0  0  0  0  0  0  0
   73.3504   59.8420   20.3948 C   0  0  1  0  0  0  0  0  0  0  0  0
   72.0657   60.1387   19.7077 C   0  0  0  0  0  0  0  0  0  0  0  0
   68.8887   58.8379   17.9115 C   0  0  0  0  0  0  0  0  0  0  0  0
   68.9628   60.1906   18.1256 C   0  0  0  0  0  0  0  0  0  0  0  0
   68.5028   60.7629   19.2975 C   0  0  0  0  0  0  0  0  0  0  0  0
   67.9610   59.9285   20.2572 C   0  0  0  0  0  0  0  0  0  0  0  0
   67.8879   58.5731   20.0400 C   0  0  0  0  0  0  0  0  0  0  0  0
   68.3500   58.0318   18.8723 C   0  0  0  0  0  0  0  0  0  0  0  0
   64.1444   49.8425   13.5471 C   0  0  0  0  0  0  0  0  0  0  0  0
   74.2599   55.1426   16.1695 C   0  0  0  0  0  0  0  0  0  0  0  0
   72.1133   54.0824   15.4814 C   0  0  2  0  0  0  0  0  0  0  0  0
   73.1933   55.1014   15.0880 C   0  0  0  0  0  0  0  0  0  0  0  0
   72.7543   52.7382   15.4846 C   0  0  0  0  0  0  0  0  0  0  0  0
   65.5153   50.0521   13.0391 C   0  0  2  0  0  0  0  0  0  0  0  0
   69.9217   55.0213   14.8390 N   0  0  0  0  0  0  0  0  0  0  0  0
   71.6676   58.3648   17.4189 N   0  0  0  0  0  0  0  0  0  0  0  0
   67.6688   55.3597   16.2359 O   0  0  0  0  0  0  0  0  0  0  0  0
   69.3209   53.7921   17.0442 O   0  0  0  0  0  0  0  0  0  0  0  0
   71.4789   58.2972   14.7829 O   0  0  0  0  0  0  0  0  0  0  0  0
   72.1112   57.2305   19.3653 O   0  0  0  0  0  0  0  0  0  0  0  0
   73.8693   58.3539   18.5322 O   0  0  0  0  0  0  0  0  0  0  0  0
   75.2412   61.1855   20.0961 O   0  0  0  0  0  0  0  0  0  0  0  0
   73.2186   62.1439   20.0308 O   0  0  0  0  0  0  0  0  0  0  0  0
   66.1891   48.8240   12.9079 O   0  0  0  0  0  0  0  0  0  0  0  0
   63.4505   48.9726   12.7310 O   0  0  0  0  0  0  0  0  0  0  0  0
   68.7012   54.3577   15.7731 S   0  0  1  0  0  6  0  0  0  0  0  0
  1  2  1  0
 16  1  1  0
  1 35  1  6
  2  8  1  6
  2 32  1  0
 32  3  1  0
  3 36  2  0
  3 37  1  0
  4  5  1  0
  4 17  1  0
  4 37  1  6
  5 38  1  0
 17  6  1  0
  6 38  1  6
  6 39  1  0
 18  7  1  0
  7 39  1  0
  8 19  1  0
 10  9  2  0
 14  9  1  0
  9 30  1  0
 11 10  1  0
 12 11  2  0
 12 13  1  0
 42 12  1  0
 13 14  2  0
 15 27  1  0
 31 15  1  0
 31 16  1  0
 17 18  1  6
 19 20  2  0
 19 24  1  0
 20 21  1  0
 21 22  2  0
 23 22  1  0
 24 23  2  0
 30 25  1  0
 25 41  1  0
 28 26  1  0
 27 28  1  0
 27 29  1  6
 30 40  1  1
 42 31  1  6
 42 33  2  0
 42 34  2  0
M  END
$$$$
