
     RDKit          3D

 42 45  0  0  0  0  0  0  0  0999 V2000
   70.9527   57.0206   15.5285 C   0  0  1  0  0  0  0  0  0  0  0  0
   70.5704   57.2842   16.9918 C   0  0  2  0  0  0  0  0  0  0  0  0
   72.7518   57.8684   18.1074 C   0  0  0  0  0  0  0  0  0  0  0  0
   73.9114   59.1528   19.8725 C   0  0  1  0  0  0  0  0  0  0  0  0
   74.9160   59.6047   18.8337 C   0  0  0  0  0  0  0  0  0  0  0  0
   74.1855   61.4744   19.7145 C   0  0  1  0  0  0  0  0  0  0  0  0
   72.4480   61.7585   18.3304 C   0  0  0  0  0  0  0  0  0  0  0  0
   69.2128   57.9532   16.9584 C   0  0  0  0  0  0  0  0  0  0  0  0
   72.4594   50.0120   15.1666 C   0  0  0  0  0  0  0  0  0  0  0  0
   71.4922   50.2205   16.1099 C   0  0  0  0  0  0  0  0  0  0  0  0
   71.0959   51.5166   16.4586 C   0  0  0  0  0  0  0  0  0  0  0  0
   71.6559   52.6051   15.8753 C   0  0  0  0  0  0  0  0  0  0  0  0
   72.6316   52.3942   14.9244 C   0  0  0  0  0  0  0  0  0  0  0  0
   73.0410   51.1330   14.5615 C   0  0  0  0  0  0  0  0  0  0  0  0
   68.8553   53.9065   15.0866 C   0  0  0  0  0  0  0  0  0  0  0  0
   69.8815   56.1171   14.9688 C   0  0  0  0  0  0  0  0  0  0  0  0
   73.1750   60.4465   20.1464 C   0  0  1  0  0  0  0  0  0  0  0  0
   72.0055   60.6757   19.2574 C   0  0  0  0  0  0  0  0  0  0  0  0
   68.8766   58.5603   18.2773 C   0  0  0  0  0  0  0  0  0  0  0  0
   68.5976   57.6962   19.3052 C   0  0  0  0  0  0  0  0  0  0  0  0
   68.2738   58.1567   20.5684 C   0  0  0  0  0  0  0  0  0  0  0  0
   68.2382   59.5237   20.7706 C   0  0  0  0  0  0  0  0  0  0  0  0
   68.5183   60.3873   19.7386 C   0  0  0  0  0  0  0  0  0  0  0  0
   68.8359   59.9066   18.4985 C   0  0  0  0  0  0  0  0  0  0  0  0
   71.8929   47.6639   14.4740 C   0  0  0  0  0  0  0  0  0  0  0  0
   67.3983   51.8415   13.5805 C   0  0  0  0  0  0  0  0  0  0  0  0
   68.1503   54.2075   13.7849 C   0  0  2  0  0  0  0  0  0  0  0  0
   66.9286   53.2770   13.7462 C   0  0  0  0  0  0  0  0  0  0  0  0
   68.9651   53.9177   12.5725 C   0  0  0  0  0  0  0  0  0  0  0  0
   72.9241   48.6881   14.7365 C   0  0  2  0  0  0  0  0  0  0  0  0
   69.8436   54.8107   15.4779 N   0  0  0  0  0  0  0  0  0  0  0  0
   71.5107   58.2298   17.5658 N   0  0  0  0  0  0  0  0  0  0  0  0
   71.1814   54.3765   17.7502 O   0  0  0  0  0  0  0  0  0  0  0  0
   72.4007   55.1151   15.7988 O   0  0  0  0  0  0  0  0  0  0  0  0
   70.9514   58.2793   14.9251 O   0  0  0  0  0  0  0  0  0  0  0  0
   73.6083   57.3091   17.4105 O   0  0  0  0  0  0  0  0  0  0  0  0
   73.1019   58.1101   19.4474 O   0  0  0  0  0  0  0  0  0  0  0  0
   75.3661   60.7966   19.4074 O   0  0  0  0  0  0  0  0  0  0  0  0
   73.7352   62.0982   18.5951 O   0  0  0  0  0  0  0  0  0  0  0  0
   73.9104   48.1877   15.6062 O   0  0  0  0  0  0  0  0  0  0  0  0
   72.4578   46.5368   13.9132 O   0  0  0  0  0  0  0  0  0  0  0  0
   71.2246   54.2560   16.2443 S   0  0  1  0  0  6  0  0  0  0  0  0
  1  2  1  0
 16  1  1  0
  1 35  1  6
  2  8  1  6
  2 32  1  0
 32  3  1  0
  3 36  2  0
  3 37  1  0
  4  5  1  0
  4 17  1  0
  4 37  1  6
  5 38  1  0
 17  6  1  0
  6 38  1  6
  6 39  1  0
 18  7  1  0
  7 39  1  0
  8 19  1  0
 10  9  2  0
 14  9  1  0
  9 30  1  0
 11 10  1  0
 12 11  2  0
 12 13  1  0
 42 12  1  0
 13 14  2  0
 15 27  1  0
 31 15  1  0
 31 16  1  0
 17 18  1  6
 19 20  2  0
 19 24  1  0
 20 21  1  0
 21 22  2  0
 23 22  1  0
 24 23  2  0
 30 25  1  0
 25 41  1  0
 28 26  1  0
 27 28  1  0
 27 29  1  6
 30 40  1  1
 42 31  1  6
 42 33  2  0
 42 34  2  0
M  END
$$$$
