
     RDKit          3D

 42 45  0  0  0  0  0  0  0  0999 V2000
   71.2940   57.1639   15.6081 C   0  0  1  0  0  0  0  0  0  0  0  0
   70.8769   57.6313   17.0097 C   0  0  2  0  0  0  0  0  0  0  0  0
   72.5339   58.3633   18.7599 C   0  0  0  0  0  0  0  0  0  0  0  0
   74.4504   59.6992   19.5672 C   0  0  1  0  0  0  0  0  0  0  0  0
   74.7704   60.8367   18.6206 C   0  0  0  0  0  0  0  0  0  0  0  0
   73.8982   61.8306   20.3689 C   0  0  1  0  0  0  0  0  0  0  0  0
   71.7637   61.7174   19.7009 C   0  0  0  0  0  0  0  0  0  0  0  0
   69.6017   58.4262   16.8263 C   0  0  0  0  0  0  0  0  0  0  0  0
   66.6272   51.1730   13.6679 C   0  0  0  0  0  0  0  0  0  0  0  0
   67.7053   50.7821   14.4119 C   0  0  0  0  0  0  0  0  0  0  0  0
   68.4301   51.7093   15.1693 C   0  0  0  0  0  0  0  0  0  0  0  0
   68.0890   53.0215   15.1905 C   0  0  0  0  0  0  0  0  0  0  0  0
   67.0018   53.4151   14.4396 C   0  0  0  0  0  0  0  0  0  0  0  0
   66.2711   52.5273   13.6863 C   0  0  0  0  0  0  0  0  0  0  0  0
   71.4298   54.2630   15.1931 C   0  0  0  0  0  0  0  0  0  0  0  0
   70.1478   56.3362   15.0809 C   0  0  0  0  0  0  0  0  0  0  0  0
   73.5156   60.3854   20.5401 C   0  0  1  0  0  0  0  0  0  0  0  0
   72.0837   60.3285   20.1439 C   0  0  0  0  0  0  0  0  0  0  0  0
   69.0459   58.8668   18.1371 C   0  0  0  0  0  0  0  0  0  0  0  0
   68.6075   57.8838   18.9872 C   0  0  0  0  0  0  0  0  0  0  0  0
   68.0744   58.1858   20.2271 C   0  0  0  0  0  0  0  0  0  0  0  0
   67.9940   59.5169   20.5913 C   0  0  0  0  0  0  0  0  0  0  0  0
   68.4342   60.4999   19.7373 C   0  0  0  0  0  0  0  0  0  0  0  0
   68.9574   60.1749   18.5164 C   0  0  0  0  0  0  0  0  0  0  0  0
   64.7232   49.5377   13.5453 C   0  0  0  0  0  0  0  0  0  0  0  0
   74.9409   55.0975   14.0689 C   0  0  0  0  0  0  0  0  0  0  0  0
   72.6802   55.1072   15.1151 C   0  0  2  0  0  0  0  0  0  0  0  0
   73.5734   54.4350   14.0616 C   0  0  0  0  0  0  0  0  0  0  0  0
   73.4570   55.1595   16.3846 C   0  0  0  0  0  0  0  0  0  0  0  0
   65.8087   50.2647   12.8564 C   0  0  2  0  0  0  0  0  0  0  0  0
   70.2234   54.9545   15.3106 N   0  0  0  0  0  0  0  0  0  0  0  0
   71.8863   58.5364   17.5290 N   0  0  0  0  0  0  0  0  0  0  0  0
   67.8918   55.2331   16.5863 O   0  0  0  0  0  0  0  0  0  0  0  0
   69.4547   53.5600   17.3597 O   0  0  0  0  0  0  0  0  0  0  0  0
   71.4775   58.3393   14.8779 O   0  0  0  0  0  0  0  0  0  0  0  0
   71.9042   57.9978   19.7609 O   0  0  0  0  0  0  0  0  0  0  0  0
   73.9102   58.5872   18.9389 O   0  0  0  0  0  0  0  0  0  0  0  0
   75.0112   61.8715   19.5280 O   0  0  0  0  0  0  0  0  0  0  0  0
   72.8743   62.4943   19.7721 O   0  0  0  0  0  0  0  0  0  0  0  0
   66.6130   49.3749   12.1210 O   0  0  0  0  0  0  0  0  0  0  0  0
   63.9759   48.8090   12.6428 O   0  0  0  0  0  0  0  0  0  0  0  0
   68.9311   54.2469   16.1053 S   0  0  1  0  0  6  0  0  0  0  0  0
  1  2  1  0
 16  1  1  0
  1 35  1  6
  2  8  1  6
  2 32  1  0
 32  3  1  0
  3 36  2  0
  3 37  1  0
  4  5  1  0
  4 17  1  0
  4 37  1  6
  5 38  1  0
 17  6  1  0
  6 38  1  6
  6 39  1  0
 18  7  1  0
  7 39  1  0
  8 19  1  0
 10  9  2  0
 14  9  1  0
  9 30  1  0
 11 10  1  0
 12 11  2  0
 12 13  1  0
 42 12  1  0
 13 14  2  0
 15 27  1  0
 31 15  1  0
 31 16  1  0
 17 18  1  6
 19 20  2  0
 19 24  1  0
 20 21  1  0
 21 22  2  0
 23 22  1  0
 24 23  2  0
 30 25  1  0
 25 41  1  0
 28 26  1  0
 27 28  1  0
 27 29  1  1
 30 40  1  1
 42 31  1  6
 42 33  2  0
 42 34  2  0
M  END
$$$$
