
     RDKit          3D

 42 45  0  0  0  0  0  0  0  0999 V2000
   71.4475   57.4931   15.4382 C   0  0  1  0  0  0  0  0  0  0  0  0
   70.7368   56.8533   16.6392 C   0  0  2  0  0  0  0  0  0  0  0  0
   72.4089   58.2066   17.9496 C   0  0  0  0  0  0  0  0  0  0  0  0
   73.6872   58.9246   19.9396 C   0  0  1  0  0  0  0  0  0  0  0  0
   75.1211   59.3361   20.1986 C   0  0  0  0  0  0  0  0  0  0  0  0
   73.9606   61.1380   20.6584 C   0  0  1  0  0  0  0  0  0  0  0  0
   73.9646   61.9915   18.5880 C   0  0  0  0  0  0  0  0  0  0  0  0
   69.3858   57.5291   16.7380 C   0  0  0  0  0  0  0  0  0  0  0  0
   66.9171   51.8696   13.8953 C   0  0  0  0  0  0  0  0  0  0  0  0
   68.0390   51.4684   14.5654 C   0  0  0  0  0  0  0  0  0  0  0  0
   68.9314   52.4053   15.0985 C   0  0  0  0  0  0  0  0  0  0  0  0
   68.7145   53.7376   14.9687 C   0  0  0  0  0  0  0  0  0  0  0  0
   67.5831   54.1416   14.2924 C   0  0  0  0  0  0  0  0  0  0  0  0
   66.6888   53.2445   13.7583 C   0  0  0  0  0  0  0  0  0  0  0  0
   72.1559   54.0471   14.8845 C   0  0  0  0  0  0  0  0  0  0  0  0
   71.6462   56.3895   14.4285 C   0  0  0  0  0  0  0  0  0  0  0  0
   73.0039   60.2740   19.8822 C   0  0  1  0  0  0  0  0  0  0  0  0
   72.9728   60.8780   18.5240 C   0  0  0  0  0  0  0  0  0  0  0  0
   69.1586   58.0867   18.1012 C   0  0  0  0  0  0  0  0  0  0  0  0
   69.2187   59.4508   18.2317 C   0  0  0  0  0  0  0  0  0  0  0  0
   69.0227   60.0690   19.4533 C   0  0  0  0  0  0  0  0  0  0  0  0
   68.7623   59.2691   20.5502 C   0  0  0  0  0  0  0  0  0  0  0  0
   68.7027   57.9023   20.4164 C   0  0  0  0  0  0  0  0  0  0  0  0
   68.9001   57.3154   19.1972 C   0  0  0  0  0  0  0  0  0  0  0  0
   66.3764   49.5806   13.0107 C   0  0  0  0  0  0  0  0  0  0  0  0
   73.5629   52.1460   13.8524 C   0  0  0  0  0  0  0  0  0  0  0  0
   73.6197   54.4203   14.8673 C   0  0  2  0  0  0  0  0  0  0  0  0
   74.3860   53.0991   14.7027 C   0  0  0  0  0  0  0  0  0  0  0  0
   74.0988   55.0550   16.1264 C   0  0  0  0  0  0  0  0  0  0  0  0
   65.9272   50.9539   13.3164 C   0  0  2  0  0  0  0  0  0  0  0  0
   71.2476   55.1050   14.8270 N   0  0  0  0  0  0  0  0  0  0  0  0
   71.4734   57.1676   17.8501 N   0  0  0  0  0  0  0  0  0  0  0  0
   68.9757   56.2631   15.6260 O   0  0  0  0  0  0  0  0  0  0  0  0
   70.0186   54.6220   17.0610 O   0  0  0  0  0  0  0  0  0  0  0  0
   70.5669   58.4753   14.9818 O   0  0  0  0  0  0  0  0  0  0  0  0
   72.2839   59.2379   17.2768 O   0  0  0  0  0  0  0  0  0  0  0  0
   73.5271   58.1509   18.7999 O   0  0  0  0  0  0  0  0  0  0  0  0
   74.9402   60.3003   21.1934 O   0  0  0  0  0  0  0  0  0  0  0  0
   74.5531   62.0185   19.8107 O   0  0  0  0  0  0  0  0  0  0  0  0
   65.2940   51.5291   12.1993 O   0  0  0  0  0  0  0  0  0  0  0  0
   65.3757   48.8699   12.3802 O   0  0  0  0  0  0  0  0  0  0  0  0
   69.7689   54.9769   15.6011 S   0  0  1  0  0  6  0  0  0  0  0  0
  1  2  1  0
 16  1  1  0
  1 35  1  6
  2  8  1  1
  2 32  1  0
 32  3  1  0
  3 36  2  0
  3 37  1  0
  4  5  1  0
  4 17  1  0
  4 37  1  6
  5 38  1  0
 17  6  1  0
  6 38  1  6
  6 39  1  0
 18  7  1  0
  7 39  1  0
  8 19  1  0
 10  9  2  0
 14  9  1  0
  9 30  1  0
 11 10  1  0
 12 11  2  0
 12 13  1  0
 42 12  1  0
 13 14  2  0
 15 27  1  0
 31 15  1  0
 31 16  1  0
 17 18  1  6
 19 20  2  0
 19 24  1  0
 20 21  1  0
 21 22  2  0
 23 22  1  0
 24 23  2  0
 30 25  1  0
 25 41  1  0
 28 26  1  0
 27 28  1  0
 27 29  1  1
 30 40  1  6
 42 31  1  6
 42 33  2  0
 42 34  2  0
M  END
$$$$
