
     RDKit          3D

 42 45  0  0  0  0  0  0  0  0999 V2000
   70.5267   56.8696   15.5071 C   0  0  1  0  0  0  0  0  0  0  0  0
   70.3216   57.5599   16.8630 C   0  0  2  0  0  0  0  0  0  0  0  0
   72.1974   58.6907   18.1069 C   0  0  0  0  0  0  0  0  0  0  0  0
   74.1584   59.7989   19.1248 C   0  0  1  0  0  0  0  0  0  0  0  0
   74.9892   61.0291   18.8267 C   0  0  0  0  0  0  0  0  0  0  0  0
   74.1209   61.4397   20.7971 C   0  0  1  0  0  0  0  0  0  0  0  0
   72.2319   62.3913   20.0613 C   0  0  0  0  0  0  0  0  0  0  0  0
   68.9649   58.2279   16.7944 C   0  0  0  0  0  0  0  0  0  0  0  0
   66.4868   51.0568   13.9227 C   0  0  0  0  0  0  0  0  0  0  0  0
   66.2597   52.3987   13.7942 C   0  0  0  0  0  0  0  0  0  0  0  0
   67.0557   53.3303   14.4702 C   0  0  0  0  0  0  0  0  0  0  0  0
   68.0749   52.9352   15.2726 C   0  0  0  0  0  0  0  0  0  0  0  0
   68.3031   51.5817   15.4021 C   0  0  0  0  0  0  0  0  0  0  0  0
   67.5381   50.6437   14.7506 C   0  0  0  0  0  0  0  0  0  0  0  0
   71.1997   53.4360   14.6011 C   0  0  0  0  0  0  0  0  0  0  0  0
   71.2185   55.5611   15.8002 C   0  0  0  0  0  0  0  0  0  0  0  0
   73.2961   60.2999   20.2635 C   0  0  1  0  0  0  0  0  0  0  0  0
   72.0242   60.9324   19.8247 C   0  0  0  0  0  0  0  0  0  0  0  0
   68.6151   58.8757   18.0902 C   0  0  0  0  0  0  0  0  0  0  0  0
   68.2291   58.0480   19.1136 C   0  0  0  0  0  0  0  0  0  0  0  0
   67.8835   58.5479   20.3559 C   0  0  0  0  0  0  0  0  0  0  0  0
   67.9376   59.9167   20.5417 C   0  0  0  0  0  0  0  0  0  0  0  0
   68.3248   60.7437   19.5143 C   0  0  0  0  0  0  0  0  0  0  0  0
   68.6616   60.2243   18.2950 C   0  0  0  0  0  0  0  0  0  0  0  0
   66.4597   49.0043   12.4734 C   0  0  0  0  0  0  0  0  0  0  0  0
   72.9360   51.2515   14.4017 C   0  0  0  0  0  0  0  0  0  0  0  0
   72.6394   53.7196   14.2417 C   0  0  2  0  0  0  0  0  0  0  0  0
   73.1429   52.4655   13.5116 C   0  0  0  0  0  0  0  0  0  0  0  0
   73.5276   53.9326   15.4180 C   0  0  0  0  0  0  0  0  0  0  0  0
   65.7073   50.0167   13.2417 C   0  0  2  0  0  0  0  0  0  0  0  0
   70.5547   54.4001   15.3770 N   0  0  0  0  0  0  0  0  0  0  0  0
   71.3170   58.6051   17.0196 N   0  0  0  0  0  0  0  0  0  0  0  0
   68.2890   55.2288   16.5263 O   0  0  0  0  0  0  0  0  0  0  0  0
   69.4500   53.3293   17.4668 O   0  0  0  0  0  0  0  0  0  0  0  0
   69.2393   56.6854   15.0000 O   0  0  0  0  0  0  0  0  0  0  0  0
   71.9009   58.1967   19.2023 O   0  0  0  0  0  0  0  0  0  0  0  0
   73.4482   59.3281   18.0307 O   0  0  0  0  0  0  0  0  0  0  0  0
   75.3407   61.4260   20.1193 O   0  0  0  0  0  0  0  0  0  0  0  0
   73.4860   62.6108   20.5317 O   0  0  0  0  0  0  0  0  0  0  0  0
   64.6864   50.5796   12.4539 O   0  0  0  0  0  0  0  0  0  0  0  0
   65.5969   48.1362   11.8362 O   0  0  0  0  0  0  0  0  0  0  0  0
   69.1196   54.0230   16.1517 S   0  0  1  0  0  6  0  0  0  0  0  0
  1  2  1  0
 16  1  1  0
  1 35  1  1
  2  8  1  6
  2 32  1  0
 32  3  1  0
  3 36  2  0
  3 37  1  0
  4  5  1  0
  4 17  1  0
  4 37  1  6
  5 38  1  0
 17  6  1  0
  6 38  1  6
  6 39  1  0
 18  7  1  0
  7 39  1  0
  8 19  1  0
 10  9  2  0
 14  9  1  0
  9 30  1  0
 11 10  1  0
 12 11  2  0
 12 13  1  0
 42 12  1  0
 13 14  2  0
 15 27  1  0
 31 15  1  0
 31 16  1  0
 17 18  1  6
 19 20  2  0
 19 24  1  0
 20 21  1  0
 21 22  2  0
 23 22  1  0
 24 23  2  0
 30 25  1  0
 25 41  1  0
 28 26  1  0
 27 28  1  0
 27 29  1  1
 30 40  1  6
 42 31  1  6
 42 33  2  0
 42 34  2  0
M  END
$$$$
