
     RDKit          3D

 42 45  0  0  0  0  0  0  0  0999 V2000
   70.6855   57.2735   16.5463 C   0  0  1  0  0  0  0  0  0  0  0  0
   70.2808   57.9519   17.8628 C   0  0  2  0  0  0  0  0  0  0  0  0
   71.8017   58.7963   19.6844 C   0  0  0  0  0  0  0  0  0  0  0  0
   73.8346   59.9949   20.4194 C   0  0  1  0  0  0  0  0  0  0  0  0
   74.6175   58.9787   19.6152 C   0  0  0  0  0  0  0  0  0  0  0  0
   75.7804   60.8257   19.4123 C   0  0  1  0  0  0  0  0  0  0  0  0
   74.7160   61.6120   17.6056 C   0  0  0  0  0  0  0  0  0  0  0  0
   69.1497   58.8974   17.5189 C   0  0  0  0  0  0  0  0  0  0  0  0
   69.8689   49.7567   14.6046 C   0  0  0  0  0  0  0  0  0  0  0  0
   69.0514   50.3810   15.5049 C   0  0  0  0  0  0  0  0  0  0  0  0
   69.3517   51.6626   15.9801 C   0  0  0  0  0  0  0  0  0  0  0  0
   70.4593   52.3258   15.5654 C   0  0  0  0  0  0  0  0  0  0  0  0
   71.2836   51.6954   14.6577 C   0  0  0  0  0  0  0  0  0  0  0  0
   71.0143   50.4374   14.1735 C   0  0  0  0  0  0  0  0  0  0  0  0
   69.9663   55.3098   14.0364 C   0  0  0  0  0  0  0  0  0  0  0  0
   69.6430   56.2160   16.2788 C   0  0  0  0  0  0  0  0  0  0  0  0
   74.4428   61.2890   19.9227 C   0  0  1  0  0  0  0  0  0  0  0  0
   73.7631   61.8561   18.7281 C   0  0  0  0  0  0  0  0  0  0  0  0
   68.4545   59.3779   18.7465 C   0  0  0  0  0  0  0  0  0  0  0  0
   68.4849   60.7275   18.9889 C   0  0  0  0  0  0  0  0  0  0  0  0
   67.8710   61.2759   20.1003 C   0  0  0  0  0  0  0  0  0  0  0  0
   67.2195   60.4205   20.9691 C   0  0  0  0  0  0  0  0  0  0  0  0
   67.1908   59.0684   20.7236 C   0  0  0  0  0  0  0  0  0  0  0  0
   67.8057   58.5509   19.6173 C   0  0  0  0  0  0  0  0  0  0  0  0
   70.5249   47.9582   12.9769 C   0  0  0  0  0  0  0  0  0  0  0  0
   66.3756   56.4661   14.0675 C   0  0  0  0  0  0  0  0  0  0  0  0
   68.7582   56.0302   13.4856 C   0  0  2  0  0  0  0  0  0  0  0  0
   67.5690   55.5659   14.3399 C   0  0  0  0  0  0  0  0  0  0  0  0
   68.4437   55.6924   12.0697 C   0  0  0  0  0  0  0  0  0  0  0  0
   69.6213   48.4210   14.0496 C   0  0  2  0  0  0  0  0  0  0  0  0
   70.0243   55.1714   15.4238 N   0  0  0  0  0  0  0  0  0  0  0  0
   71.3908   58.7539   18.3451 N   0  0  0  0  0  0  0  0  0  0  0  0
   70.8941   53.9075   17.6118 O   0  0  0  0  0  0  0  0  0  0  0  0
   72.3737   54.1076   15.7116 O   0  0  0  0  0  0  0  0  0  0  0  0
   70.6600   58.2941   15.5943 O   0  0  0  0  0  0  0  0  0  0  0  0
   71.5948   57.8389   20.4410 O   0  0  0  0  0  0  0  0  0  0  0  0
   72.4616   59.9025   20.2479 O   0  0  0  0  0  0  0  0  0  0  0  0
   75.9146   59.4793   19.7539 O   0  0  0  0  0  0  0  0  0  0  0  0
   75.8036   60.9382   18.0589 O   0  0  0  0  0  0  0  0  0  0  0  0
   68.2763   48.2712   13.6645 O   0  0  0  0  0  0  0  0  0  0  0  0
   70.2832   46.6337   12.6743 O   0  0  0  0  0  0  0  0  0  0  0  0
   70.9126   53.9244   16.1007 S   0  0  1  0  0  6  0  0  0  0  0  0
  1  2  1  0
 16  1  1  0
  1 35  1  6
  2  8  1  6
  2 32  1  0
 32  3  1  0
  3 36  2  0
  3 37  1  0
  4  5  1  0
  4 17  1  0
  4 37  1  6
  5 38  1  0
 17  6  1  0
  6 38  1  6
  6 39  1  0
 18  7  1  0
  7 39  1  0
  8 19  1  0
 10  9  2  0
 14  9  1  0
  9 30  1  0
 11 10  1  0
 12 11  2  0
 12 13  1  0
 42 12  1  0
 13 14  2  0
 15 27  1  0
 31 15  1  0
 31 16  1  0
 17 18  1  6
 19 20  2  0
 19 24  1  0
 20 21  1  0
 21 22  2  0
 23 22  1  0
 24 23  2  0
 30 25  1  0
 25 41  1  0
 28 26  1  0
 27 28  1  0
 27 29  1  6
 30 40  1  6
 42 31  1  6
 42 33  2  0
 42 34  2  0
M  END
$$$$
