
     RDKit          3D

 42 45  0  0  0  0  0  0  0  0999 V2000
   70.7340   57.2856   15.5637 C   0  0  1  0  0  0  0  0  0  0  0  0
   70.5275   57.9276   16.9429 C   0  0  2  0  0  0  0  0  0  0  0  0
   72.1506   58.7383   18.6902 C   0  0  0  0  0  0  0  0  0  0  0  0
   74.1568   59.9638   19.4536 C   0  0  1  0  0  0  0  0  0  0  0  0
   74.4135   60.9028   18.2939 C   0  0  0  0  0  0  0  0  0  0  0  0
   73.7997   62.2309   19.9263 C   0  0  1  0  0  0  0  0  0  0  0  0
   71.5983   62.1453   19.5243 C   0  0  0  0  0  0  0  0  0  0  0  0
   69.4834   59.0071   16.7528 C   0  0  0  0  0  0  0  0  0  0  0  0
   66.9330   51.1976   13.6107 C   0  0  0  0  0  0  0  0  0  0  0  0
   67.8381   50.8990   14.5906 C   0  0  0  0  0  0  0  0  0  0  0  0
   68.5237   51.9129   15.2690 C   0  0  0  0  0  0  0  0  0  0  0  0
   68.3146   53.2208   14.9781 C   0  0  0  0  0  0  0  0  0  0  0  0
   67.4021   53.5213   13.9894 C   0  0  0  0  0  0  0  0  0  0  0  0
   66.7138   52.5469   13.3064 C   0  0  0  0  0  0  0  0  0  0  0  0
   71.3832   53.8356   14.5693 C   0  0  0  0  0  0  0  0  0  0  0  0
   71.3527   55.9328   15.8163 C   0  0  0  0  0  0  0  0  0  0  0  0
   73.3754   60.8628   20.3876 C   0  0  1  0  0  0  0  0  0  0  0  0
   71.9056   60.8329   20.1654 C   0  0  0  0  0  0  0  0  0  0  0  0
   68.8712   59.4020   18.0530 C   0  0  0  0  0  0  0  0  0  0  0  0
   68.7383   60.7458   18.2936 C   0  0  0  0  0  0  0  0  0  0  0  0
   68.1833   61.2178   19.4691 C   0  0  0  0  0  0  0  0  0  0  0  0
   67.7618   60.2915   20.4046 C   0  0  0  0  0  0  0  0  0  0  0  0
   67.8962   58.9455   20.1607 C   0  0  0  0  0  0  0  0  0  0  0  0
   68.4485   58.5043   18.9902 C   0  0  0  0  0  0  0  0  0  0  0  0
   66.7846   49.6519   11.6351 C   0  0  0  0  0  0  0  0  0  0  0  0
   73.1008   52.0368   12.9309 C   0  0  0  0  0  0  0  0  0  0  0  0
   72.8416   54.1103   14.2869 C   0  0  2  0  0  0  0  0  0  0  0  0
   73.5198   52.7340   14.2143 C   0  0  0  0  0  0  0  0  0  0  0  0
   73.5305   54.8867   15.3548 C   0  0  0  0  0  0  0  0  0  0  0  0
   66.1655   50.1970   12.8602 C   0  0  2  0  0  0  0  0  0  0  0  0
   70.6880   54.8322   15.2557 N   0  0  0  0  0  0  0  0  0  0  0  0
   71.7592   58.5770   17.3540 N   0  0  0  0  0  0  0  0  0  0  0  0
   68.2112   55.7524   15.6554 O   0  0  0  0  0  0  0  0  0  0  0  0
   69.1560   54.2063   17.2545 O   0  0  0  0  0  0  0  0  0  0  0  0
   69.4528   57.1877   15.0182 O   0  0  0  0  0  0  0  0  0  0  0  0
   71.3064   58.8354   19.5901 O   0  0  0  0  0  0  0  0  0  0  0  0
   73.4966   58.7993   19.0914 O   0  0  0  0  0  0  0  0  0  0  0  0
   74.8062   62.0577   18.9753 O   0  0  0  0  0  0  0  0  0  0  0  0
   72.7434   62.8496   19.3378 O   0  0  0  0  0  0  0  0  0  0  0  0
   64.8596   50.6496   12.5972 O   0  0  0  0  0  0  0  0  0  0  0  0
   66.0738   48.5629   11.1734 O   0  0  0  0  0  0  0  0  0  0  0  0
   69.1205   54.5508   15.7713 S   0  0  1  0  0  6  0  0  0  0  0  0
  1  2  1  0
 16  1  1  0
  1 35  1  1
  2  8  1  6
  2 32  1  0
 32  3  1  0
  3 36  2  0
  3 37  1  0
  4  5  1  0
  4 17  1  0
  4 37  1  6
  5 38  1  0
 17  6  1  0
  6 38  1  6
  6 39  1  0
 18  7  1  0
  7 39  1  0
  8 19  1  0
 10  9  2  0
 14  9  1  0
  9 30  1  0
 11 10  1  0
 12 11  2  0
 12 13  1  0
 42 12  1  0
 13 14  2  0
 15 27  1  0
 31 15  1  0
 31 16  1  0
 17 18  1  6
 19 20  2  0
 19 24  1  0
 20 21  1  0
 21 22  2  0
 23 22  1  0
 24 23  2  0
 30 25  1  0
 25 41  1  0
 28 26  1  0
 27 28  1  0
 27 29  1  1
 30 40  1  6
 42 31  1  6
 42 33  2  0
 42 34  2  0
M  END
$$$$
