
     RDKit          3D

116123  0  0  0  0  0  0  0  0999 V2000
   -8.7509  106.3926    7.7787 N   0  0  0  0  0  0  0  0  0  0  0  0
   -8.8916  105.2242    7.0617 C   0  0  2  0  0  0  0  0  0  0  0  0
   -8.8743  104.0221    7.9335 C   0  0  0  0  0  0  0  0  0  0  0  0
  -10.0304  103.7760    8.4488 O   0  0  0  0  0  0  0  0  0  0  0  0
   -7.7787  103.1969    8.2184 N   0  0  0  0  0  0  0  0  0  0  0  0
   -6.8729  102.5491    7.3066 C   0  0  2  0  0  0  0  0  0  0  0  0
   -5.5127  103.0247    7.6451 C   0  0  0  0  0  0  0  0  0  0  0  0
   -5.1137  104.0676    7.0324 O   0  0  0  0  0  0  0  0  0  0  0  0
   -7.1674  102.7364    5.8574 C   0  0  0  0  0  0  0  0  0  0  0  0
   -7.6661  101.4867    5.1749 C   0  0  0  0  0  0  0  0  0  0  0  0
   -7.0853  100.3150    5.9467 C   0  0  0  0  0  0  0  0  0  0  0  0
   -6.1310   99.5644    5.1706 N   0  0  0  0  0  0  0  0  0  0  0  0
   -5.3649  100.1242    4.1055 C   0  0  0  0  0  0  0  0  0  0  0  0
   -4.2740   99.4827    3.7768 N   0  0  0  0  0  0  0  0  0  0  0  0
   -5.7561  101.3103    3.4348 N   0  0  0  0  0  0  0  0  0  0  0  0
   -4.6307  102.4257    8.5811 N   0  0  0  0  0  0  0  0  0  0  0  0
   -4.2875  101.0192    8.6472 C   0  0  2  0  0  0  0  0  0  0  0  0
   -5.2284  100.2766    9.5231 C   0  0  0  0  0  0  0  0  0  0  0  0
   -6.0292  101.0023   10.2230 O   0  0  0  0  0  0  0  0  0  0  0  0
   -2.8645  100.9515    9.2481 C   0  0  0  0  0  0  0  0  0  0  0  0
   -2.1103  102.5814    9.3316 S   0  0  0  0  0  0  0  0  0  0  0  0
   -5.3422   98.9089    9.6754 N   0  0  0  0  0  0  0  0  0  0  0  0
   -5.5974   97.8744    8.6821 C   0  0  2  0  0  0  0  0  0  0  0  0
   -4.3342   97.2233    8.2673 C   0  0  0  0  0  0  0  0  0  0  0  0
   -3.6478   97.8741    7.4004 O   0  0  0  0  0  0  0  0  0  0  0  0
   -6.4571   98.3343    7.5513 C   0  0  0  0  0  0  0  0  0  0  0  0
   -5.7755   98.5845    6.2781 C   0  0  0  0  0  0  0  0  0  0  0  0
   -4.5592   97.9997    6.0109 C   0  0  0  0  0  0  0  0  0  0  0  0
   -6.3460   99.3820    5.3242 C   0  0  0  0  0  0  0  0  0  0  0  0
   -3.9335   98.2208    4.7971 C   0  0  0  0  0  0  0  0  0  0  0  0
   -5.7100   99.6057    4.0922 C   0  0  0  0  0  0  0  0  0  0  0  0
   -4.5064   99.0185    3.8447 C   0  0  0  0  0  0  0  0  0  0  0  0
   -3.8790   99.2448    2.6159 O   0  0  0  0  0  0  0  0  0  0  0  0
   -3.8180   96.0086    8.7063 N   0  0  0  0  0  0  0  0  0  0  0  0
   -4.5949   94.8961    9.2805 C   0  0  2  0  0  0  0  0  0  0  0  0
   -3.6779   94.0365   10.0643 C   0  0  0  0  0  0  0  0  0  0  0  0
   -3.4276   92.8879    9.5256 O   0  0  0  0  0  0  0  0  0  0  0  0
   -5.1366   94.1688    8.0533 C   0  0  0  0  0  0  0  0  0  0  0  0
   -6.5511   93.7193    8.1701 C   0  0  0  0  0  0  0  0  0  0  0  0
   -6.8947   92.7121    7.0966 C   0  0  0  0  0  0  0  0  0  0  0  0
   -7.7900   91.6601    7.6668 C   0  0  0  0  0  0  0  0  0  0  0  0
   -8.9789   91.4825    6.8701 N   0  0  0  0  0  4  0  0  0  0  0  0
   -3.0524   94.2764   11.2736 N   0  0  0  0  0  0  0  0  0  0  0  0
   -3.5856   94.5185   12.5928 C   0  0  2  0  0  0  0  0  0  0  0  0
   -2.9543   93.5566   13.5665 C   0  0  0  0  0  0  0  0  0  0  0  0
   -2.5275   92.4767   13.0190 O   0  0  0  0  0  0  0  0  0  0  0  0
   -5.0969   94.4130   12.6712 C   0  0  0  0  0  0  0  0  0  0  0  0
   -5.7199   95.0876   11.6440 O   0  0  0  0  0  0  0  0  0  0  0  0
   -2.7914   93.6986   14.9212 N   0  0  0  0  0  0  0  0  0  0  0  0
   -2.2277   94.7843   15.7070 C   0  0  2  0  0  0  0  0  0  0  0  0
   -3.4144   95.5161   16.2213 C   0  0  0  0  0  0  0  0  0  0  0  0
   -3.9618   96.3193   15.3870 O   0  0  0  0  0  0  0  0  0  0  0  0
   -1.2370   95.6176   14.9883 C   0  0  0  0  0  0  0  0  0  0  0  0
   -1.9316   96.3791   13.8805 C   0  0  0  0  0  0  0  0  0  0  0  0
   -3.2362   96.9845   14.3676 C   0  0  0  0  0  0  0  0  0  0  0  0
   -3.4402   96.6594   15.7654 N   0  0  0  0  0  0  0  0  0  0  0  0
   -4.4825   97.2407   16.5338 C   0  0  0  0  0  0  0  0  0  0  0  0
   -4.3187   97.4706   17.7906 N   0  0  0  0  0  0  0  0  0  0  0  0
   -5.7269   97.5846   15.9419 N   0  0  0  0  0  0  0  0  0  0  0  0
   -4.0123   95.4476   17.4761 N   0  0  0  0  0  0  0  0  0  0  0  0
   -3.4669   95.8399   18.7617 C   0  0  2  0  0  0  0  0  0  0  0  0
   -2.2254   96.5646   18.7721 C   0  0  0  0  0  0  0  0  0  0  0  0
   -1.0907   96.0213   18.6770 O   0  0  0  0  0  0  0  0  0  0  0  0
   -3.4816   94.4975   19.4598 C   0  0  0  0  0  0  0  0  0  0  0  0
   -4.8408   93.9611   18.9772 C   0  0  0  0  0  0  0  0  0  0  0  0
   -5.3428   94.9799   17.9518 C   0  0  0  0  0  0  0  0  0  0  0  0
   -2.2145   97.9800   18.8963 N   0  0  0  0  0  0  0  0  0  0  0  0
   -3.1733   98.8428   18.1792 C   0  0  2  0  0  0  0  0  0  0  0  0
   -2.5085   99.4141   17.0029 C   0  0  0  0  0  0  0  0  0  0  0  0
   -1.4667   98.7261   16.6444 O   0  0  0  0  0  0  0  0  0  0  0  0
   -3.6592   99.7392   19.2329 C   0  0  0  0  0  0  0  0  0  0  0  0
   -2.5750   99.7286   20.2986 C   0  0  0  0  0  0  0  0  0  0  0  0
   -1.4098   98.9699   19.6370 C   0  0  0  0  0  0  0  0  0  0  0  0
   -2.7686  100.5178   16.2111 N   0  0  0  0  0  0  0  0  0  0  0  0
   -2.6642  101.9378   16.3900 C   0  0  2  0  0  0  0  0  0  0  0  0
   -1.9607  102.4782   15.1594 C   0  0  0  0  0  0  0  0  0  0  0  0
   -0.8443  101.8883   14.9355 O   0  0  0  0  0  0  0  0  0  0  0  0
   -1.7917  102.4014   17.5274 C   0  0  2  0  0  0  0  0  0  0  0  0
   -1.1923  103.7612   17.1200 C   0  0  0  0  0  0  0  0  0  0  0  0
   -0.5707  101.5255   17.7373 C   0  0  0  0  0  0  0  0  0  0  0  0
   -1.4291  104.0384   15.6686 C   0  0  0  0  0  0  0  0  0  0  0  0
   -2.4057  103.4881   14.3224 N   0  0  0  0  0  0  0  0  0  0  0  0
   -3.6105  103.6082   13.5512 C   0  0  2  0  0  0  0  0  0  0  0  0
   -4.8474  103.1586   14.2074 C   0  0  0  0  0  0  0  0  0  0  0  0
   -5.0708  101.8911   14.1123 O   0  0  0  0  0  0  0  0  0  0  0  0
   -3.3954  102.7599   12.2823 C   0  0  0  0  0  0  0  0  0  0  0  0
   -2.0423  103.3999   11.2700 S   0  0  0  0  0  0  0  0  0  0  0  0
   -5.7881  103.8895   14.9002 N   0  0  0  0  0  0  0  0  0  0  0  0
   -6.5056  105.1128   14.4410 C   0  0  2  0  0  0  0  0  0  0  0  0
   -6.1732  105.4240   13.0874 C   0  0  0  0  0  0  0  0  0  0  0  0
   -6.3766  104.3001   12.3364 O   0  0  0  0  0  0  0  0  0  0  0  0
   -6.6136  106.0004   15.5834 C   0  0  0  0  0  0  0  0  0  0  0  0
   -7.2172  107.3247   15.4538 C   0  0  0  0  0  0  0  0  0  0  0  0
   -8.2747  107.7687   16.2140 C   0  0  0  0  0  0  0  0  0  0  0  0
   -6.6446  108.2345   14.5610 C   0  0  0  0  0  0  0  0  0  0  0  0
   -8.7400  109.0560   16.0898 C   0  0  0  0  0  0  0  0  0  0  0  0
   -7.1004  109.5259   14.4256 C   0  0  0  0  0  0  0  0  0  0  0  0
   -8.1626  109.9478   15.1981 C   0  0  0  0  0  0  0  0  0  0  0  0
   -5.7202  106.4632   12.2898 N   0  0  0  0  0  0  0  0  0  0  0  0
   -6.1247  107.8403   12.1825 C   0  0  2  0  0  0  0  0  0  0  0  0
   -6.4485  108.2384   10.7578 C   0  0  0  0  0  0  0  0  0  0  0  0
   -5.8385  109.2650   10.2748 O   0  0  0  0  0  0  0  0  0  0  0  0
   -4.7638  108.5121   12.4823 C   0  0  0  0  0  0  0  0  0  0  0  0
   -3.8309  107.6261   11.6418 C   0  0  0  0  0  0  0  0  0  0  0  0
   -4.6655  106.4440   11.2306 C   0  0  0  0  0  0  0  0  0  0  0  0
   -7.3422  107.6124    9.8998 N   0  0  0  0  0  0  0  0  0  0  0  0
   -8.7185  107.2265   10.1197 C   0  0  2  0  0  0  0  0  0  0  0  0
   -9.3941  107.1168    8.7603 C   0  0  0  0  0  0  0  0  0  0  0  0
  -10.4807  107.7018    8.6591 O   0  0  0  0  0  0  0  0  0  0  0  0
   -9.4924  108.1598   11.0043 C   0  0  0  0  0  0  0  0  0  0  0  0
  -10.1149  109.2854   10.2644 C   0  0  0  0  0  0  0  0  0  0  0  0
  -11.3484  109.2243   10.0115 O   0  0  0  0  0  0  0  0  0  0  0  0
   -9.4010  110.4230    9.8258 N   0  0  0  0  0  0  0  0  0  0  0  0
   -7.7879  105.9757    6.7952 O   0  0  0  0  0  0  0  0  0  0  0  0
   -4.0454   98.6285    4.3165 H   0  0  0  0  0  0  0  0  0  0  0  0
   -5.0989   97.5700   18.4644 H   0  0  0  0  0  0  0  0  0  0  0  0
  1  2  1  0
  1108  1  0
  1114  1  0
  2  3  1  0
  2114  1  6
  3  4  2  0
  3  5  1  0
  5  6  1  0
  6  7  1  0
  6  9  1  6
  7  8  2  0
  7 16  1  0
  9 10  1  0
 10 11  1  0
 11 12  1  0
 12 13  1  0
 13 14  2  0
 13 15  1  0
 17 16  1  1
 17 18  1  0
 17 20  1  0
 18 19  2  0
 18 22  1  0
 20 21  1  0
 21 87  1  0
 22 23  1  0
 23 24  1  0
 23 26  1  6
 24 25  2  0
 24 34  1  0
 26 27  1  0
 27 28  2  0
 27 29  1  0
 28 30  1  0
 29 31  2  0
 30 32  2  0
 31 32  1  0
 32 33  1  0
 34 35  1  0
 35 36  1  0
 35 38  1  6
 36 37  2  0
 36 43  1  0
 38 39  1  0
 39 40  1  0
 40 41  1  0
 41 42  1  0
 43 44  1  0
 44 45  1  0
 44 47  1  6
 45 46  2  0
 45 49  1  0
 47 48  1  0
 49 50  1  0
 50 51  1  0
 50 53  1  6
 51 52  2  0
 51 60  1  0
 53 54  1  0
 54 55  1  0
 55 56  1  0
 56 57  1  0
 57 58  2  0
 57 59  1  0
 60 61  1  0
 60 66  1  0
 61 62  1  0
 61 64  1  1
 62 63  2  0
 62 67  1  0
 64 65  1  0
 65 66  1  0
 67 68  1  0
 67 73  1  0
 68 69  1  0
 68 71  1  1
 69 70  2  0
 69 74  1  0
 71 72  1  0
 72 73  1  0
 75 74  1  6
 75 76  1  0
 75 78  1  0
 76 77  2  0
 76 82  1  0
 78 79  1  0
 78 80  1  6
 79 81  1  0
 83 82  1  1
 83 84  1  0
 83 86  1  0
 84 85  2  0
 84 88  1  0
 86 87  1  0
 88 89  1  0
 89 90  1  0
 89 92  1  1
 90 91  2  0
 90 99  1  0
 92 93  1  0
 93 94  2  0
 93 95  1  0
 94 96  1  0
 95 97  2  0
 96 98  2  0
 97 98  1  0
 99100  1  0
 99105  1  0
100101  1  0
100103  1  6
101102  2  0
101106  1  0
103104  1  0
104105  1  0
106107  1  0
107108  1  0
107110  1  1
108109  2  0
110111  1  0
111112  2  0
111113  1  0
 14115  1  0
 58116  1  0
M  CHG  1  42   1
M  END
$$$$
