
     RDKit          3D

116123  0  0  0  0  0  0  0  0999 V2000
   -9.2904  102.8402    4.2594 N   0  0  0  0  0  0  0  0  0  0  0  0
   -9.1488  101.4776    4.1109 C   0  0  2  0  0  0  0  0  0  0  0  0
   -9.1148  100.7686    5.4154 C   0  0  0  0  0  0  0  0  0  0  0  0
  -10.2967  100.5364    5.8758 O   0  0  0  0  0  0  0  0  0  0  0  0
   -7.9807  100.3640    6.1313 N   0  0  0  0  0  0  0  0  0  0  0  0
   -6.8553   99.5884    5.6802 C   0  0  2  0  0  0  0  0  0  0  0  0
   -5.6486  100.4158    5.9043 C   0  0  0  0  0  0  0  0  0  0  0  0
   -5.2979  101.1704    4.9400 O   0  0  0  0  0  0  0  0  0  0  0  0
   -6.9253   99.1023    4.2728 C   0  0  0  0  0  0  0  0  0  0  0  0
   -6.3057   97.7414    4.0713 C   0  0  0  0  0  0  0  0  0  0  0  0
   -6.8037   96.8699    5.2108 C   0  0  0  0  0  0  0  0  0  0  0  0
   -7.1981   95.5570    4.7668 N   0  0  0  0  0  0  0  0  0  0  0  0
   -7.7677   94.5710    5.6261 C   0  0  0  0  0  0  0  0  0  0  0  0
   -7.3003   93.3561    5.5042 N   0  0  0  0  0  0  0  0  0  0  0  0
   -8.7854   94.8816    6.5629 N   0  0  0  0  0  0  0  0  0  0  0  0
   -4.8629  100.4386    7.0855 N   0  0  0  0  0  0  0  0  0  0  0  0
   -4.3479   99.2800    7.7872 C   0  0  2  0  0  0  0  0  0  0  0  0
   -5.3126   98.7956    8.8064 C   0  0  0  0  0  0  0  0  0  0  0  0
   -6.3106   99.5739    9.0437 O   0  0  0  0  0  0  0  0  0  0  0  0
   -3.0500   99.7435    8.4881 C   0  0  0  0  0  0  0  0  0  0  0  0
   -2.5490  101.3762    7.9262 S   0  0  0  0  0  0  0  0  0  0  0  0
   -5.2635   97.6180    9.5258 N   0  0  0  0  0  0  0  0  0  0  0  0
   -5.2054   96.2387    9.0610 C   0  0  2  0  0  0  0  0  0  0  0  0
   -3.8141   95.7341    9.0900 C   0  0  0  0  0  0  0  0  0  0  0  0
   -3.0868   96.0909    8.0949 O   0  0  0  0  0  0  0  0  0  0  0  0
   -5.9178   96.0162    7.7676 C   0  0  0  0  0  0  0  0  0  0  0  0
   -5.0769   95.9305    6.5702 C   0  0  0  0  0  0  0  0  0  0  0  0
   -3.7080   96.0239    6.6705 C   0  0  0  0  0  0  0  0  0  0  0  0
   -5.6344   95.7315    5.3369 C   0  0  0  0  0  0  0  0  0  0  0  0
   -2.9194   95.9173    5.5390 C   0  0  0  0  0  0  0  0  0  0  0  0
   -4.8328   95.6233    4.1888 C   0  0  0  0  0  0  0  0  0  0  0  0
   -3.4794   95.7180    4.3068 C   0  0  0  0  0  0  0  0  0  0  0  0
   -2.6873   95.6086    3.1599 O   0  0  0  0  0  0  0  0  0  0  0  0
   -3.2186   94.9331   10.0588 N   0  0  0  0  0  0  0  0  0  0  0  0
   -3.9224   94.0272   10.9835 C   0  0  2  0  0  0  0  0  0  0  0  0
   -3.0416   93.7623   12.1446 C   0  0  0  0  0  0  0  0  0  0  0  0
   -2.5509   92.5665   12.1838 O   0  0  0  0  0  0  0  0  0  0  0  0
   -4.1466   92.7696   10.1488 C   0  0  0  0  0  0  0  0  0  0  0  0
   -3.8052   91.4954   10.8390 C   0  0  0  0  0  0  0  0  0  0  0  0
   -2.5083   91.6198   11.6053 C   0  0  0  0  0  0  0  0  0  0  0  0
   -2.2748   90.3743   12.3976 C   0  0  0  0  0  0  0  0  0  0  0  0
   -0.9589   90.3560   12.9871 N   0  0  0  0  0  4  0  0  0  0  0  0
   -2.6664   94.5947   13.1826 N   0  0  0  0  0  0  0  0  0  0  0  0
   -3.4412   95.2489   14.2097 C   0  0  2  0  0  0  0  0  0  0  0  0
   -2.8574   94.9153   15.5587 C   0  0  0  0  0  0  0  0  0  0  0  0
   -2.2021   93.8115   15.5768 O   0  0  0  0  0  0  0  0  0  0  0  0
   -4.9156   94.8932   14.1844 C   0  0  0  0  0  0  0  0  0  0  0  0
   -5.7211   96.0109   14.1925 O   0  0  0  0  0  0  0  0  0  0  0  0
   -2.9449   95.6304   16.7262 N   0  0  0  0  0  0  0  0  0  0  0  0
   -2.6737   97.0299   17.0118 C   0  0  2  0  0  0  0  0  0  0  0  0
   -4.0182   97.6623   17.0440 C   0  0  0  0  0  0  0  0  0  0  0  0
   -4.5219   97.9282   15.8967 O   0  0  0  0  0  0  0  0  0  0  0  0
   -1.6991   97.6694   16.0988 C   0  0  0  0  0  0  0  0  0  0  0  0
   -0.4070   97.9248   16.8435 C   0  0  0  0  0  0  0  0  0  0  0  0
   -0.6174   97.8496   18.3456 C   0  0  0  0  0  0  0  0  0  0  0  0
    0.5221   98.4236   19.0332 N   0  0  0  0  0  0  0  0  0  0  0  0
    1.7749   97.7603   19.1069 C   0  0  0  0  0  0  0  0  0  0  0  0
    2.6505   98.1113   19.9841 N   0  0  0  0  0  0  0  0  0  0  0  0
    2.0957   96.6967   18.2222 N   0  0  0  0  0  0  0  0  0  0  0  0
   -4.8031   98.0008   18.1422 N   0  0  0  0  0  0  0  0  0  0  0  0
   -4.5395   98.9847   19.1749 C   0  0  2  0  0  0  0  0  0  0  0  0
   -3.4274   99.8759   18.9858 C   0  0  0  0  0  0  0  0  0  0  0  0
   -2.2298   99.5736   19.2425 O   0  0  0  0  0  0  0  0  0  0  0  0
   -4.4886   98.0733   20.3816 C   0  0  0  0  0  0  0  0  0  0  0  0
   -5.6619   97.1327   20.0549 C   0  0  0  0  0  0  0  0  0  0  0  0
   -6.1185   97.5209   18.6470 C   0  0  0  0  0  0  0  0  0  0  0  0
   -3.6299  101.1896   18.4838 N   0  0  0  0  0  0  0  0  0  0  0  0
   -4.5631  101.4768   17.3771 C   0  0  2  0  0  0  0  0  0  0  0  0
   -3.7942  101.6313   16.1373 C   0  0  0  0  0  0  0  0  0  0  0  0
   -2.6234  101.0739   16.2122 O   0  0  0  0  0  0  0  0  0  0  0  0
   -5.3360  102.6137   17.8868 C   0  0  0  0  0  0  0  0  0  0  0  0
   -4.4547  103.2533   18.9477 C   0  0  0  0  0  0  0  0  0  0  0  0
   -3.1030  102.5323   18.7931 C   0  0  0  0  0  0  0  0  0  0  0  0
   -4.0654  102.2382   14.9245 N   0  0  0  0  0  0  0  0  0  0  0  0
   -4.1864  103.5967   14.4783 C   0  0  2  0  0  0  0  0  0  0  0  0
   -3.3665  103.7090   13.2069 C   0  0  0  0  0  0  0  0  0  0  0  0
   -2.1587  103.3087   13.3667 O   0  0  0  0  0  0  0  0  0  0  0  0
   -3.5882  104.6469   15.3779 C   0  0  2  0  0  0  0  0  0  0  0  0
   -2.1379  104.2210   15.6776 C   0  0  0  0  0  0  0  0  0  0  0  0
   -4.2335  104.6942   16.7502 C   0  0  0  0  0  0  0  0  0  0  0  0
   -1.8673  104.2380   17.1493 C   0  0  0  0  0  0  0  0  0  0  0  0
   -3.7978  104.1778   11.9769 N   0  0  0  0  0  0  0  0  0  0  0  0
   -4.8612  103.7333   11.1211 C   0  0  2  0  0  0  0  0  0  0  0  0
   -6.1179  103.3621   11.7885 C   0  0  0  0  0  0  0  0  0  0  0  0
   -6.1479  102.1507   12.2326 O   0  0  0  0  0  0  0  0  0  0  0  0
   -4.3230  102.4981   10.3725 C   0  0  0  0  0  0  0  0  0  0  0  0
   -2.9190  102.9152    9.3142 S   0  0  0  0  0  0  0  0  0  0  0  0
   -7.2519  104.1148   12.0040 N   0  0  0  0  0  0  0  0  0  0  0  0
   -8.0417  104.8759   10.9946 C   0  0  2  0  0  0  0  0  0  0  0  0
   -7.5323  104.6613    9.6777 C   0  0  0  0  0  0  0  0  0  0  0  0
   -7.4523  103.3121    9.4735 O   0  0  0  0  0  0  0  0  0  0  0  0
   -8.4593  106.1150   11.6229 C   0  0  0  0  0  0  0  0  0  0  0  0
   -8.3140  107.3952   10.9337 C   0  0  0  0  0  0  0  0  0  0  0  0
   -7.1127  107.9045   10.4966 C   0  0  0  0  0  0  0  0  0  0  0  0
   -9.4673  108.1207   10.6234 C   0  0  0  0  0  0  0  0  0  0  0  0
   -7.0629  109.0799    9.7861 C   0  0  0  0  0  0  0  0  0  0  0  0
   -9.4323  109.2990    9.9135 C   0  0  0  0  0  0  0  0  0  0  0  0
   -8.2160  109.7902    9.4865 C   0  0  0  0  0  0  0  0  0  0  0  0
   -7.0974  105.3471    8.5544 N   0  0  0  0  0  0  0  0  0  0  0  0
   -7.6614  106.4507    7.8228 C   0  0  2  0  0  0  0  0  0  0  0  0
   -7.7927  106.1567    6.3431 C   0  0  0  0  0  0  0  0  0  0  0  0
   -7.2556  106.9911    5.5218 O   0  0  0  0  0  0  0  0  0  0  0  0
   -6.4742  107.4370    7.9271 C   0  0  0  0  0  0  0  0  0  0  0  0
   -5.3020  106.4840    7.6458 C   0  0  0  0  0  0  0  0  0  0  0  0
   -5.8873  105.0998    7.7123 C   0  0  0  0  0  0  0  0  0  0  0  0
   -8.4364  105.0726    5.7624 N   0  0  0  0  0  0  0  0  0  0  0  0
   -9.7648  104.5515    5.9981 C   0  0  2  0  0  0  0  0  0  0  0  0
  -10.1815  103.7636    4.7645 C   0  0  0  0  0  0  0  0  0  0  0  0
  -11.3050  104.0317    4.3183 O   0  0  0  0  0  0  0  0  0  0  0  0
  -10.7955  105.5958    6.3133 C   0  0  0  0  0  0  0  0  0  0  0  0
  -12.0339  105.4572    5.5076 C   0  0  0  0  0  0  0  0  0  0  0  0
  -12.8301  104.5222    5.7925 O   0  0  0  0  0  0  0  0  0  0  0  0
  -12.3704  106.3150    4.4367 N   0  0  0  0  0  0  0  0  0  0  0  0
   -8.1285  102.2520    3.6492 O   0  0  0  0  0  0  0  0  0  0  0  0
   -7.9653   92.5753    5.6506 H   0  0  0  0  0  0  0  0  0  0  0  0
    2.4454   98.2123   20.9943 H   0  0  0  0  0  0  0  0  0  0  0  0
  1  2  1  0
  1108  1  0
  1114  1  0
  2  3  1  0
  2114  1  1
  3  4  2  0
  3  5  1  0
  5  6  1  0
  6  7  1  0
  6  9  1  6
  7  8  2  0
  7 16  1  0
  9 10  1  0
 10 11  1  0
 11 12  1  0
 12 13  1  0
 13 14  2  0
 13 15  1  0
 17 16  1  1
 17 18  1  0
 17 20  1  0
 18 19  2  0
 18 22  1  0
 20 21  1  0
 21 87  1  0
 22 23  1  0
 23 24  1  0
 23 26  1  6
 24 25  2  0
 24 34  1  0
 26 27  1  0
 27 28  2  0
 27 29  1  0
 28 30  1  0
 29 31  2  0
 30 32  2  0
 31 32  1  0
 32 33  1  0
 34 35  1  0
 35 36  1  0
 35 38  1  6
 36 37  2  0
 36 43  1  0
 38 39  1  0
 39 40  1  0
 40 41  1  0
 41 42  1  0
 43 44  1  0
 44 45  1  0
 44 47  1  1
 45 46  2  0
 45 49  1  0
 47 48  1  0
 49 50  1  0
 50 51  1  0
 50 53  1  6
 51 52  2  0
 51 60  1  0
 53 54  1  0
 54 55  1  0
 55 56  1  0
 56 57  1  0
 57 58  2  0
 57 59  1  0
 60 61  1  0
 60 66  1  0
 61 62  1  0
 61 64  1  1
 62 63  2  0
 62 67  1  0
 64 65  1  0
 65 66  1  0
 67 68  1  0
 67 73  1  0
 68 69  1  0
 68 71  1  1
 69 70  2  0
 69 74  1  0
 71 72  1  0
 72 73  1  0
 75 74  1  1
 75 76  1  0
 75 78  1  0
 76 77  2  0
 76 82  1  0
 78 79  1  0
 78 80  1  1
 79 81  1  0
 83 82  1  1
 83 84  1  0
 83 86  1  0
 84 85  2  0
 84 88  1  0
 86 87  1  0
 88 89  1  0
 89 90  1  0
 89 92  1  1
 90 91  2  0
 90 99  1  0
 92 93  1  0
 93 94  2  0
 93 95  1  0
 94 96  1  0
 95 97  2  0
 96 98  2  0
 97 98  1  0
 99100  1  0
 99105  1  0
100101  1  0
100103  1  6
101102  2  0
101106  1  0
103104  1  0
104105  1  0
106107  1  0
107108  1  0
107110  1  6
108109  2  0
110111  1  0
111112  2  0
111113  1  0
 14115  1  0
 58116  1  0
M  CHG  1  42   1
M  END
$$$$
