
     RDKit          3D

116123  0  0  0  0  0  0  0  0999 V2000
  -11.1214  102.5338    5.5572 N   0  0  0  0  0  0  0  0  0  0  0  0
  -11.0773  101.1566    5.5340 C   0  0  2  0  0  0  0  0  0  0  0  0
  -10.7018  100.5822    6.8510 C   0  0  0  0  0  0  0  0  0  0  0  0
  -11.7130  100.4779    7.6443 O   0  0  0  0  0  0  0  0  0  0  0  0
   -9.4271  100.1763    7.2667 N   0  0  0  0  0  0  0  0  0  0  0  0
   -8.5041   99.2851    6.6146 C   0  0  2  0  0  0  0  0  0  0  0  0
   -7.2540  100.0475    6.3985 C   0  0  0  0  0  0  0  0  0  0  0  0
   -7.1629  100.6757    5.2942 O   0  0  0  0  0  0  0  0  0  0  0  0
   -8.9867   98.6653    5.3477 C   0  0  0  0  0  0  0  0  0  0  0  0
  -10.2225   97.8174    5.5213 C   0  0  0  0  0  0  0  0  0  0  0  0
   -9.7522   96.3739    5.5519 C   0  0  0  0  0  0  0  0  0  0  0  0
   -8.5493   96.1713    4.7849 N   0  0  0  0  0  0  0  0  0  0  0  0
   -7.9785   94.8879    4.5358 C   0  0  0  0  0  0  0  0  0  0  0  0
   -8.4319   93.9007    5.2635 N   0  0  0  0  0  0  0  0  0  0  0  0
   -6.9744   94.6842    3.5561 N   0  0  0  0  0  0  0  0  0  0  0  0
   -6.1662  100.1364    7.3050 N   0  0  0  0  0  0  0  0  0  0  0  0
   -5.5164   99.0223    7.9659 C   0  0  2  0  0  0  0  0  0  0  0  0
   -6.1707   98.7094    9.2613 C   0  0  0  0  0  0  0  0  0  0  0  0
   -7.0318   99.5731    9.6739 O   0  0  0  0  0  0  0  0  0  0  0  0
   -4.0573   99.4656    8.2215 C   0  0  0  0  0  0  0  0  0  0  0  0
   -3.6765  100.9957    7.3578 S   0  0  0  0  0  0  0  0  0  0  0  0
   -5.9631   97.6097   10.0702 N   0  0  0  0  0  0  0  0  0  0  0  0
   -6.0891   96.1898    9.7703 C   0  0  2  0  0  0  0  0  0  0  0  0
   -4.7656   95.5980    9.4712 C   0  0  0  0  0  0  0  0  0  0  0  0
   -4.3367   95.8027    8.2793 O   0  0  0  0  0  0  0  0  0  0  0  0
   -7.1455   95.8866    8.7596 C   0  0  0  0  0  0  0  0  0  0  0  0
   -6.6772   95.5587    7.4100 C   0  0  0  0  0  0  0  0  0  0  0  0
   -5.7555   94.5560    7.2155 C   0  0  0  0  0  0  0  0  0  0  0  0
   -7.1652   96.2247    6.3193 C   0  0  0  0  0  0  0  0  0  0  0  0
   -5.3367   94.2355    5.9366 C   0  0  0  0  0  0  0  0  0  0  0  0
   -6.7394   95.8984    5.0214 C   0  0  0  0  0  0  0  0  0  0  0  0
   -5.8265   94.9030    4.8474 C   0  0  0  0  0  0  0  0  0  0  0  0
   -5.4076   94.5828    3.5525 O   0  0  0  0  0  0  0  0  0  0  0  0
   -3.9501   94.8605   10.3232 N   0  0  0  0  0  0  0  0  0  0  0  0
   -4.3963   94.1020   11.5049 C   0  0  2  0  0  0  0  0  0  0  0  0
   -3.2335   93.8968   12.3994 C   0  0  0  0  0  0  0  0  0  0  0  0
   -2.7956   92.6807   12.4393 O   0  0  0  0  0  0  0  0  0  0  0  0
   -4.8930   92.7846   10.9164 C   0  0  0  0  0  0  0  0  0  0  0  0
   -4.0231   92.2107    9.8532 C   0  0  0  0  0  0  0  0  0  0  0  0
   -4.5469   90.8736    9.3815 C   0  0  0  0  0  0  0  0  0  0  0  0
   -3.4103   89.9135    9.2400 C   0  0  0  0  0  0  0  0  0  0  0  0
   -3.7888   88.7471    8.4813 N   0  0  0  0  0  4  0  0  0  0  0  0
   -2.5502   94.8024   13.1892 N   0  0  0  0  0  0  0  0  0  0  0  0
   -2.9788   95.6076   14.3078 C   0  0  2  0  0  0  0  0  0  0  0  0
   -2.0500   95.3732   15.4717 C   0  0  0  0  0  0  0  0  0  0  0  0
   -1.4570   94.2351   15.4352 O   0  0  0  0  0  0  0  0  0  0  0  0
   -4.4122   95.3513   14.7331 C   0  0  0  0  0  0  0  0  0  0  0  0
   -5.2792   96.3023   14.2409 O   0  0  0  0  0  0  0  0  0  0  0  0
   -1.7778   96.2066   16.5268 N   0  0  0  0  0  0  0  0  0  0  0  0
   -1.3863   97.6063   16.5622 C   0  0  2  0  0  0  0  0  0  0  0  0
   -2.6429   98.3279   16.8920 C   0  0  0  0  0  0  0  0  0  0  0  0
   -3.4403   98.5101   15.9062 O   0  0  0  0  0  0  0  0  0  0  0  0
   -0.6868   98.0832   15.3474 C   0  0  0  0  0  0  0  0  0  0  0  0
    0.6946   97.4687   15.2902 C   0  0  0  0  0  0  0  0  0  0  0  0
    0.7939   96.4496   14.1688 C   0  0  0  0  0  0  0  0  0  0  0  0
   -0.5107   96.2434   13.5718 N   0  0  0  0  0  0  0  0  0  0  0  0
   -0.6995   96.1844   12.1662 C   0  0  0  0  0  0  0  0  0  0  0  0
   -1.6085   95.4254   11.6594 N   0  0  0  0  0  0  0  0  0  0  0  0
    0.1027   96.9567   11.2846 N   0  0  0  0  0  0  0  0  0  0  0  0
   -3.0725   98.8276   18.1177 N   0  0  0  0  0  0  0  0  0  0  0  0
   -2.4922   99.8906   18.9159 C   0  0  2  0  0  0  0  0  0  0  0  0
   -1.4472  100.6811   18.3245 C   0  0  0  0  0  0  0  0  0  0  0  0
   -0.2377  100.3263   18.2728 O   0  0  0  0  0  0  0  0  0  0  0  0
   -2.1355   99.1042   20.1584 C   0  0  0  0  0  0  0  0  0  0  0  0
   -3.3867   98.2168   20.2804 C   0  0  0  0  0  0  0  0  0  0  0  0
   -4.2082   98.4909   19.0189 C   0  0  0  0  0  0  0  0  0  0  0  0
   -1.7354  101.9482   17.7497 N   0  0  0  0  0  0  0  0  0  0  0  0
   -2.9322  102.1846   16.9192 C   0  0  2  0  0  0  0  0  0  0  0  0
   -2.5400  102.1611   15.5057 C   0  0  0  0  0  0  0  0  0  0  0  0
   -1.4169  101.5364   15.3175 O   0  0  0  0  0  0  0  0  0  0  0  0
   -3.4876  103.4166   17.4878 C   0  0  0  0  0  0  0  0  0  0  0  0
   -2.3197  104.0990   18.1817 C   0  0  0  0  0  0  0  0  0  0  0  0
   -1.0940  103.2766   17.7435 C   0  0  0  0  0  0  0  0  0  0  0  0
   -3.1206  102.6594   14.3536 N   0  0  0  0  0  0  0  0  0  0  0  0
   -3.3133  103.9711   13.8043 C   0  0  2  0  0  0  0  0  0  0  0  0
   -2.8826  103.8990   12.3514 C   0  0  0  0  0  0  0  0  0  0  0  0
   -1.6943  103.4364   12.2158 O   0  0  0  0  0  0  0  0  0  0  0  0
   -2.4474  105.0639   14.3752 C   0  0  2  0  0  0  0  0  0  0  0  0
   -1.0552  104.4565   14.6348 C   0  0  0  0  0  0  0  0  0  0  0  0
   -2.8952  105.5220   15.7506 C   0  0  0  0  0  0  0  0  0  0  0  0
   -1.0879  102.9659   14.5060 C   0  0  0  0  0  0  0  0  0  0  0  0
   -3.6266  104.2694   11.2434 N   0  0  0  0  0  0  0  0  0  0  0  0
   -4.9040  103.8136   10.7729 C   0  0  2  0  0  0  0  0  0  0  0  0
   -5.9334  103.5972   11.8004 C   0  0  0  0  0  0  0  0  0  0  0  0
   -5.8808  102.4415   12.3725 O   0  0  0  0  0  0  0  0  0  0  0  0
   -4.6447  102.4757   10.0527 C   0  0  0  0  0  0  0  0  0  0  0  0
   -3.5828  102.6883    8.6062 S   0  0  0  0  0  0  0  0  0  0  0  0
   -6.9321  104.4425   12.2329 N   0  0  0  0  0  0  0  0  0  0  0  0
   -7.9468  105.1494   11.4006 C   0  0  2  0  0  0  0  0  0  0  0  0
   -7.8385  104.7693   10.0282 C   0  0  0  0  0  0  0  0  0  0  0  0
   -7.8687  103.4041    9.9674 O   0  0  0  0  0  0  0  0  0  0  0  0
   -8.1244  106.4709   11.9722 C   0  0  0  0  0  0  0  0  0  0  0  0
   -7.1174  107.5133   11.7866 C   0  0  0  0  0  0  0  0  0  0  0  0
   -5.8561  107.4744   12.3354 C   0  0  0  0  0  0  0  0  0  0  0  0
   -7.4131  108.5833   10.9378 C   0  0  0  0  0  0  0  0  0  0  0  0
   -4.9348  108.4546   12.0533 C   0  0  0  0  0  0  0  0  0  0  0  0
   -6.5009  109.5718   10.6471 C   0  0  0  0  0  0  0  0  0  0  0  0
   -5.2429  109.5118   11.2099 C   0  0  0  0  0  0  0  0  0  0  0  0
   -7.7142  105.3074    8.7569 N   0  0  0  0  0  0  0  0  0  0  0  0
   -8.4214  106.3671    8.0874 C   0  0  2  0  0  0  0  0  0  0  0  0
   -8.9762  105.9349    6.7463 C   0  0  0  0  0  0  0  0  0  0  0  0
   -8.6632  106.6440    5.7176 O   0  0  0  0  0  0  0  0  0  0  0  0
   -7.2180  107.2766    7.7441 C   0  0  0  0  0  0  0  0  0  0  0  0
   -6.2087  106.2232    7.2614 C   0  0  0  0  0  0  0  0  0  0  0  0
   -6.8013  104.8954    7.6472 C   0  0  0  0  0  0  0  0  0  0  0  0
   -9.7968  104.8436    6.4961 N   0  0  0  0  0  0  0  0  0  0  0  0
  -11.0224  104.4397    7.1491 C   0  0  2  0  0  0  0  0  0  0  0  0
  -11.7992  103.5613    6.1788 C   0  0  0  0  0  0  0  0  0  0  0  0
  -12.9925  103.8582    6.0333 O   0  0  0  0  0  0  0  0  0  0  0  0
  -11.8833  105.5777    7.6143 C   0  0  0  0  0  0  0  0  0  0  0  0
  -12.8339  105.1915    8.6864 C   0  0  0  0  0  0  0  0  0  0  0  0
  -13.9011  104.6074    8.3563 O   0  0  0  0  0  0  0  0  0  0  0  0
  -12.6098  105.4435   10.0583 N   0  0  0  0  0  0  0  0  0  0  0  0
  -10.2016  101.8099    4.7215 O   0  0  0  0  0  0  0  0  0  0  0  0
   -8.0897   92.9493    5.0379 H   0  0  0  0  0  0  0  0  0  0  0  0
   -1.6415   95.1544   10.6603 H   0  0  0  0  0  0  0  0  0  0  0  0
  1  2  1  0
  1108  1  0
  1114  1  0
  2  3  1  0
  2114  1  6
  3  4  2  0
  3  5  1  0
  5  6  1  0
  6  7  1  0
  6  9  1  6
  7  8  2  0
  7 16  1  0
  9 10  1  0
 10 11  1  0
 11 12  1  0
 12 13  1  0
 13 14  2  0
 13 15  1  0
 17 16  1  1
 17 18  1  0
 17 20  1  0
 18 19  2  0
 18 22  1  0
 20 21  1  0
 21 87  1  0
 22 23  1  0
 23 24  1  0
 23 26  1  6
 24 25  2  0
 24 34  1  0
 26 27  1  0
 27 28  2  0
 27 29  1  0
 28 30  1  0
 29 31  2  0
 30 32  2  0
 31 32  1  0
 32 33  1  0
 34 35  1  0
 35 36  1  0
 35 38  1  6
 36 37  2  0
 36 43  1  0
 38 39  1  0
 39 40  1  0
 40 41  1  0
 41 42  1  0
 43 44  1  0
 44 45  1  0
 44 47  1  1
 45 46  2  0
 45 49  1  0
 47 48  1  0
 49 50  1  0
 50 51  1  0
 50 53  1  6
 51 52  2  0
 51 60  1  0
 53 54  1  0
 54 55  1  0
 55 56  1  0
 56 57  1  0
 57 58  2  0
 57 59  1  0
 60 61  1  0
 60 66  1  0
 61 62  1  0
 61 64  1  1
 62 63  2  0
 62 67  1  0
 64 65  1  0
 65 66  1  0
 67 68  1  0
 67 73  1  0
 68 69  1  0
 68 71  1  1
 69 70  2  0
 69 74  1  0
 71 72  1  0
 72 73  1  0
 75 74  1  1
 75 76  1  0
 75 78  1  0
 76 77  2  0
 76 82  1  0
 78 79  1  0
 78 80  1  1
 79 81  1  0
 83 82  1  1
 83 84  1  0
 83 86  1  0
 84 85  2  0
 84 88  1  0
 86 87  1  0
 88 89  1  0
 89 90  1  0
 89 92  1  6
 90 91  2  0
 90 99  1  0
 92 93  1  0
 93 94  2  0
 93 95  1  0
 94 96  1  0
 95 97  2  0
 96 98  2  0
 97 98  1  0
 99100  1  0
 99105  1  0
100101  1  0
100103  1  6
101102  2  0
101106  1  0
103104  1  0
104105  1  0
106107  1  0
107108  1  0
107110  1  6
108109  2  0
110111  1  0
111112  2  0
111113  1  0
 14115  1  0
 58116  1  0
M  CHG  1  42   1
M  END
$$$$
