
     RDKit          3D

116123  0  0  0  0  0  0  0  0999 V2000
   -7.2301  107.2908    8.6453 N   0  0  0  0  0  0  0  0  0  0  0  0
   -7.4902  106.2523    7.7777 C   0  0  2  0  0  0  0  0  0  0  0  0
   -7.6958  104.9634    8.4863 C   0  0  0  0  0  0  0  0  0  0  0  0
   -8.9043  104.8297    8.9155 O   0  0  0  0  0  0  0  0  0  0  0  0
   -6.7469  103.9571    8.7083 N   0  0  0  0  0  0  0  0  0  0  0  0
   -5.8877  103.2988    7.7598 C   0  0  2  0  0  0  0  0  0  0  0  0
   -4.4972  103.5236    8.2148 C   0  0  0  0  0  0  0  0  0  0  0  0
   -3.9185  104.5631    7.7600 O   0  0  0  0  0  0  0  0  0  0  0  0
   -6.0638  103.7030    6.3358 C   0  0  0  0  0  0  0  0  0  0  0  0
   -7.3628  103.2323    5.7296 C   0  0  0  0  0  0  0  0  0  0  0  0
   -7.3326  101.7147    5.7747 C   0  0  0  0  0  0  0  0  0  0  0  0
   -6.4842  101.1512    4.7553 N   0  0  0  0  0  0  0  0  0  0  0  0
   -6.3563  101.6975    3.4438 C   0  0  0  0  0  0  0  0  0  0  0  0
   -5.8818  102.9133    3.3660 N   0  0  0  0  0  0  0  0  0  0  0  0
   -6.7216  100.9703    2.2830 N   0  0  0  0  0  0  0  0  0  0  0  0
   -3.7672  102.6913    9.1021 N   0  0  0  0  0  0  0  0  0  0  0  0
   -3.6304  101.2522    8.9999 C   0  0  2  0  0  0  0  0  0  0  0  0
   -4.7183  100.5553    9.7313 C   0  0  0  0  0  0  0  0  0  0  0  0
   -5.4500  101.3003   10.4845 O   0  0  0  0  0  0  0  0  0  0  0  0
   -2.2705  100.9024    9.6472 C   0  0  0  0  0  0  0  0  0  0  0  0
   -1.3005  102.3806    9.9733 S   0  0  0  0  0  0  0  0  0  0  0  0
   -5.0329   99.2111    9.7001 N   0  0  0  0  0  0  0  0  0  0  0  0
   -5.3703   98.3545    8.5712 C   0  0  2  0  0  0  0  0  0  0  0  0
   -4.1887   97.5797    8.1299 C   0  0  0  0  0  0  0  0  0  0  0  0
   -3.3657   98.2230    7.3846 O   0  0  0  0  0  0  0  0  0  0  0  0
   -6.0860   99.0708    7.4739 C   0  0  0  0  0  0  0  0  0  0  0  0
   -7.5173   99.3095    7.6803 C   0  0  0  0  0  0  0  0  0  0  0  0
   -8.1162   98.9727    8.8722 C   0  0  0  0  0  0  0  0  0  0  0  0
   -8.2771   99.8929    6.7038 C   0  0  0  0  0  0  0  0  0  0  0  0
   -9.4623   99.2236    9.0689 C   0  0  0  0  0  0  0  0  0  0  0  0
   -9.6436  100.1473    6.9045 C   0  0  0  0  0  0  0  0  0  0  0  0
  -10.2199   99.8075    8.0907 C   0  0  0  0  0  0  0  0  0  0  0  0
  -11.5806  100.0643    8.2842 O   0  0  0  0  0  0  0  0  0  0  0  0
   -3.8766   96.2577    8.4294 N   0  0  0  0  0  0  0  0  0  0  0  0
   -4.8362   95.2104    8.8209 C   0  0  2  0  0  0  0  0  0  0  0  0
   -4.0991   94.1358    9.5251 C   0  0  0  0  0  0  0  0  0  0  0  0
   -3.9809   93.0372    8.8533 O   0  0  0  0  0  0  0  0  0  0  0  0
   -5.3992   94.7262    7.4878 C   0  0  0  0  0  0  0  0  0  0  0  0
   -4.7654   95.3356    6.2864 C   0  0  0  0  0  0  0  0  0  0  0  0
   -3.6542   96.2832    6.6763 C   0  0  0  0  0  0  0  0  0  0  0  0
   -2.3321   95.6359    6.4184 C   0  0  0  0  0  0  0  0  0  0  0  0
   -1.2689   96.6070    6.3411 N   0  0  0  0  0  4  0  0  0  0  0  0
   -3.5210   94.1314   10.7809 N   0  0  0  0  0  0  0  0  0  0  0  0
   -4.0942   94.2867   12.0964 C   0  0  2  0  0  0  0  0  0  0  0  0
   -3.6654   93.1307   12.9633 C   0  0  0  0  0  0  0  0  0  0  0  0
   -3.3626   92.0746   12.2992 O   0  0  0  0  0  0  0  0  0  0  0  0
   -5.6072   94.3967   12.0959 C   0  0  0  0  0  0  0  0  0  0  0  0
   -6.2181   93.1741   12.2709 O   0  0  0  0  0  0  0  0  0  0  0  0
   -3.5671   93.0807   14.3307 N   0  0  0  0  0  0  0  0  0  0  0  0
   -2.9049   93.9672   15.2739 C   0  0  2  0  0  0  0  0  0  0  0  0
   -4.0057   94.7979   15.8275 C   0  0  0  0  0  0  0  0  0  0  0  0
   -4.3825   95.7688   15.0818 O   0  0  0  0  0  0  0  0  0  0  0  0
   -1.7647   94.7266   14.7121 C   0  0  0  0  0  0  0  0  0  0  0  0
   -1.6375   94.4214   13.2356 C   0  0  0  0  0  0  0  0  0  0  0  0
   -2.9522   93.9182   12.6660 C   0  0  0  0  0  0  0  0  0  0  0  0
   -3.2378   92.5931   13.1792 N   0  0  0  0  0  0  0  0  0  0  0  0
   -4.4094   91.8775   12.8182 C   0  0  0  0  0  0  0  0  0  0  0  0
   -4.4579   90.5964   12.9425 N   0  0  0  0  0  0  0  0  0  0  0  0
   -5.5545   92.5500   12.3146 N   0  0  0  0  0  0  0  0  0  0  0  0
   -4.6827   94.6658   17.0362 N   0  0  0  0  0  0  0  0  0  0  0  0
   -4.1669   94.8135   18.3839 C   0  0  2  0  0  0  0  0  0  0  0  0
   -2.8386   95.3402   18.5410 C   0  0  0  0  0  0  0  0  0  0  0  0
   -1.7882   94.6511   18.4249 O   0  0  0  0  0  0  0  0  0  0  0  0
   -4.4133   93.4130   18.9009 C   0  0  0  0  0  0  0  0  0  0  0  0
   -5.8026   93.1460   18.2953 C   0  0  0  0  0  0  0  0  0  0  0  0
   -6.0924   94.3451   17.3901 C   0  0  0  0  0  0  0  0  0  0  0  0
   -2.6358   96.7127   18.8479 N   0  0  0  0  0  0  0  0  0  0  0  0
   -3.4179   97.7886   18.2085 C   0  0  2  0  0  0  0  0  0  0  0  0
   -2.6086   98.3947   17.1455 C   0  0  0  0  0  0  0  0  0  0  0  0
   -1.6543   97.6094   16.7457 O   0  0  0  0  0  0  0  0  0  0  0  0
   -3.8358   98.6115   19.3477 C   0  0  0  0  0  0  0  0  0  0  0  0
   -2.8310   98.3111   20.4483 C   0  0  0  0  0  0  0  0  0  0  0  0
   -1.7463   97.4752   19.7443 C   0  0  0  0  0  0  0  0  0  0  0  0
   -2.6617   99.6130   16.4930 N   0  0  0  0  0  0  0  0  0  0  0  0
   -2.3693  100.9694   16.8587 C   0  0  2  0  0  0  0  0  0  0  0  0
   -1.5228  101.5461   15.7396 C   0  0  0  0  0  0  0  0  0  0  0  0
   -0.4892  100.8297   15.4890 O   0  0  0  0  0  0  0  0  0  0  0  0
   -1.5111  101.1569   18.0828 C   0  0  2  0  0  0  0  0  0  0  0  0
   -0.7104  102.4586   17.8858 C   0  0  0  0  0  0  0  0  0  0  0  0
   -0.4343  100.0973   18.2238 C   0  0  0  0  0  0  0  0  0  0  0  0
   -0.0879  102.5046   16.5256 C   0  0  0  0  0  0  0  0  0  0  0  0
   -1.7691  102.7052   15.0223 N   0  0  0  0  0  0  0  0  0  0  0  0
   -2.8956  103.0949   14.2225 C   0  0  2  0  0  0  0  0  0  0  0  0
   -4.2212  102.7562   14.7615 C   0  0  0  0  0  0  0  0  0  0  0  0
   -4.6149  101.5567   14.4936 O   0  0  0  0  0  0  0  0  0  0  0  0
   -2.7252  102.3854   12.8647 C   0  0  0  0  0  0  0  0  0  0  0  0
   -1.2362  102.9373   12.0026 S   0  0  0  0  0  0  0  0  0  0  0  0
   -5.0899  103.5279   15.5023 N   0  0  0  0  0  0  0  0  0  0  0  0
   -5.5985  104.8904   15.1753 C   0  0  2  0  0  0  0  0  0  0  0  0
   -5.1435  105.3120   13.8889 C   0  0  0  0  0  0  0  0  0  0  0  0
   -5.4572  104.3306   12.9906 O   0  0  0  0  0  0  0  0  0  0  0  0
   -5.6497  105.6381   16.4175 C   0  0  0  0  0  0  0  0  0  0  0  0
   -5.5822  107.0977   16.4212 C   0  0  0  0  0  0  0  0  0  0  0  0
   -4.4119  107.8161   16.5101 C   0  0  0  0  0  0  0  0  0  0  0  0
   -6.7650  107.8208   16.2455 C   0  0  0  0  0  0  0  0  0  0  0  0
   -4.4199  109.1881   16.4291 C   0  0  0  0  0  0  0  0  0  0  0  0
   -6.7880  109.1943   16.1634 C   0  0  0  0  0  0  0  0  0  0  0  0
   -5.6020  109.8928   16.2560 C   0  0  0  0  0  0  0  0  0  0  0  0
   -4.5007  106.3624   13.2528 N   0  0  0  0  0  0  0  0  0  0  0  0
   -4.6997  107.7868   13.3076 C   0  0  2  0  0  0  0  0  0  0  0  0
   -4.8766  108.3992   11.9340 C   0  0  0  0  0  0  0  0  0  0  0  0
   -4.0996  109.3757   11.6145 O   0  0  0  0  0  0  0  0  0  0  0  0
   -3.2785  108.2087   13.7497 C   0  0  0  0  0  0  0  0  0  0  0  0
   -2.4304  107.3040   12.8421 C   0  0  0  0  0  0  0  0  0  0  0  0
   -3.3966  106.3171   12.2460 C   0  0  0  0  0  0  0  0  0  0  0  0
   -5.7956  108.0213   10.9648 N   0  0  0  0  0  0  0  0  0  0  0  0
   -7.2234  107.8188   11.0738 C   0  0  2  0  0  0  0  0  0  0  0  0
   -7.8235  107.9767    9.6841 C   0  0  0  0  0  0  0  0  0  0  0  0
   -8.8086  108.7237    9.6134 O   0  0  0  0  0  0  0  0  0  0  0  0
   -7.9104  108.7412   12.0381 C   0  0  0  0  0  0  0  0  0  0  0  0
   -9.3884  108.6098   12.0210 C   0  0  0  0  0  0  0  0  0  0  0  0
  -10.0611  109.3315   12.8057 O   0  0  0  0  0  0  0  0  0  0  0  0
  -10.0847  107.7188   11.1741 N   0  0  0  0  0  0  0  0  0  0  0  0
   -6.2774  106.8595    7.6581 O   0  0  0  0  0  0  0  0  0  0  0  0
   -6.0987  103.4530    2.5087 H   0  0  0  0  0  0  0  0  0  0  0  0
   -3.7221   90.0344   13.4068 H   0  0  0  0  0  0  0  0  0  0  0  0
  1  2  1  0
  1108  1  0
  1114  1  0
  2  3  1  0
  2114  1  6
  3  4  2  0
  3  5  1  0
  5  6  1  0
  6  7  1  0
  6  9  1  6
  7  8  2  0
  7 16  1  0
  9 10  1  0
 10 11  1  0
 11 12  1  0
 12 13  1  0
 13 14  2  0
 13 15  1  0
 17 16  1  1
 17 18  1  0
 17 20  1  0
 18 19  2  0
 18 22  1  0
 20 21  1  0
 21 87  1  0
 22 23  1  0
 23 24  1  0
 23 26  1  6
 24 25  2  0
 24 34  1  0
 26 27  1  0
 27 28  2  0
 27 29  1  0
 28 30  1  0
 29 31  2  0
 30 32  2  0
 31 32  1  0
 32 33  1  0
 34 35  1  0
 35 36  1  0
 35 38  1  6
 36 37  2  0
 36 43  1  0
 38 39  1  0
 39 40  1  0
 40 41  1  0
 41 42  1  0
 43 44  1  0
 44 45  1  0
 44 47  1  6
 45 46  2  0
 45 49  1  0
 47 48  1  0
 49 50  1  0
 50 51  1  0
 50 53  1  6
 51 52  2  0
 51 60  1  0
 53 54  1  0
 54 55  1  0
 55 56  1  0
 56 57  1  0
 57 58  2  0
 57 59  1  0
 60 61  1  0
 60 66  1  0
 61 62  1  0
 61 64  1  6
 62 63  2  0
 62 67  1  0
 64 65  1  0
 65 66  1  0
 67 68  1  0
 67 73  1  0
 68 69  1  0
 68 71  1  1
 69 70  2  0
 69 74  1  0
 71 72  1  0
 72 73  1  0
 75 74  1  6
 75 76  1  0
 75 78  1  0
 76 77  2  0
 76 82  1  0
 78 79  1  0
 78 80  1  6
 79 81  1  0
 83 82  1  1
 83 84  1  0
 83 86  1  0
 84 85  2  0
 84 88  1  0
 86 87  1  0
 88 89  1  0
 89 90  1  0
 89 92  1  1
 90 91  2  0
 90 99  1  0
 92 93  1  0
 93 94  2  0
 93 95  1  0
 94 96  1  0
 95 97  2  0
 96 98  2  0
 97 98  1  0
 99100  1  0
 99105  1  0
100101  1  0
100103  1  6
101102  2  0
101106  1  0
103104  1  0
104105  1  0
106107  1  0
107108  1  0
107110  1  1
108109  2  0
110111  1  0
111112  2  0
111113  1  0
 14115  1  0
 58116  1  0
M  CHG  1  42   1
M  END
$$$$
