
     RDKit          3D

116123  0  0  0  0  0  0  0  0999 V2000
   -2.1380  106.3645   16.2325 N   0  0  0  0  0  0  0  0  0  0  0  0
   -1.2968  105.2905   16.4272 C   0  0  2  0  0  0  0  0  0  0  0  0
   -1.2982  104.3566   15.2725 C   0  0  0  0  0  0  0  0  0  0  0  0
   -0.4987  104.7377   14.3354 O   0  0  0  0  0  0  0  0  0  0  0  0
   -2.0472  103.1810   15.1337 N   0  0  0  0  0  0  0  0  0  0  0  0
   -2.1552  102.0653   16.0365 C   0  0  2  0  0  0  0  0  0  0  0  0
   -3.5899  101.9240   16.3717 C   0  0  0  0  0  0  0  0  0  0  0  0
   -3.9946  102.5699   17.3922 O   0  0  0  0  0  0  0  0  0  0  0  0
   -1.3164  102.1429   17.2664 C   0  0  0  0  0  0  0  0  0  0  0  0
   -1.9131  103.0037   18.3523 C   0  0  0  0  0  0  0  0  0  0  0  0
   -2.6314  104.1432   17.6510 C   0  0  0  0  0  0  0  0  0  0  0  0
   -4.0439  103.8972   17.5078 N   0  0  0  0  0  0  0  0  0  0  0  0
   -4.9500  104.8232   16.9107 C   0  0  0  0  0  0  0  0  0  0  0  0
   -4.6533  106.0900   17.0400 N   0  0  0  0  0  0  0  0  0  0  0  0
   -6.1110  104.4028   16.2142 N   0  0  0  0  0  0  0  0  0  0  0  0
   -4.5373  101.1421   15.6617 N   0  0  0  0  0  0  0  0  0  0  0  0
   -4.3696   99.7597   15.2603 C   0  0  2  0  0  0  0  0  0  0  0  0
   -3.7420   99.6616   13.9185 C   0  0  0  0  0  0  0  0  0  0  0  0
   -3.6502  100.7665   13.2638 O   0  0  0  0  0  0  0  0  0  0  0  0
   -5.7902   99.1516   15.2083 C   0  0  0  0  0  0  0  0  0  0  0  0
   -7.0045  100.2602   15.9357 S   0  0  0  0  0  0  0  0  0  0  0  0
   -3.2511   98.5318   13.2945 N   0  0  0  0  0  0  0  0  0  0  0  0
   -2.2357   97.5851   13.7356 C   0  0  2  0  0  0  0  0  0  0  0  0
   -2.8628   96.3814   14.3264 C   0  0  0  0  0  0  0  0  0  0  0  0
   -3.2541   96.5144   15.5412 O   0  0  0  0  0  0  0  0  0  0  0  0
   -1.1704   98.2051   14.5785 C   0  0  0  0  0  0  0  0  0  0  0  0
   -1.5216   98.4706   15.9765 C   0  0  0  0  0  0  0  0  0  0  0  0
   -2.8065   98.2673   16.4240 C   0  0  0  0  0  0  0  0  0  0  0  0
   -0.5752   98.9006   16.8658 C   0  0  0  0  0  0  0  0  0  0  0  0
   -3.1248   98.4964   17.7506 C   0  0  0  0  0  0  0  0  0  0  0  0
   -0.8995   99.1329   18.2124 C   0  0  0  0  0  0  0  0  0  0  0  0
   -2.1764   98.9261   18.6380 C   0  0  0  0  0  0  0  0  0  0  0  0
   -2.4922   99.1585   19.9801 O   0  0  0  0  0  0  0  0  0  0  0  0
   -3.0728   95.1466   13.7216 N   0  0  0  0  0  0  0  0  0  0  0  0
   -2.3162   94.6034   12.5798 C   0  0  2  0  0  0  0  0  0  0  0  0
   -3.1341   93.5534   11.9297 C   0  0  0  0  0  0  0  0  0  0  0  0
   -2.7023   92.3480   12.1112 O   0  0  0  0  0  0  0  0  0  0  0  0
   -1.0634   94.0205   13.2272 C   0  0  0  0  0  0  0  0  0  0  0  0
   -0.7279   92.6351   12.7978 C   0  0  0  0  0  0  0  0  0  0  0  0
   -0.1610   92.6197   11.3967 C   0  0  0  0  0  0  0  0  0  0  0  0
   -0.4701   91.3097   10.7471 C   0  0  0  0  0  0  0  0  0  0  0  0
    0.1965   91.1745    9.4755 N   0  0  0  0  0  4  0  0  0  0  0  0
   -4.2813   93.6668   11.1667 N   0  0  0  0  0  0  0  0  0  0  0  0
   -4.5268   94.3196    9.9031 C   0  0  2  0  0  0  0  0  0  0  0  0
   -5.1615   93.3367    8.9527 C   0  0  0  0  0  0  0  0  0  0  0  0
   -4.8943   92.1111    9.2263 O   0  0  0  0  0  0  0  0  0  0  0  0
   -3.2842   94.9178    9.2713 C   0  0  0  0  0  0  0  0  0  0  0  0
   -2.4532   93.9541    8.7431 O   0  0  0  0  0  0  0  0  0  0  0  0
   -5.9613   93.5939    7.8683 N   0  0  0  0  0  0  0  0  0  0  0  0
   -7.1533   94.4154    7.7338 C   0  0  2  0  0  0  0  0  0  0  0  0
   -6.6618   95.6710    7.1091 C   0  0  0  0  0  0  0  0  0  0  0  0
   -6.1057   96.4976    7.9141 O   0  0  0  0  0  0  0  0  0  0  0  0
   -7.9245   94.5948    8.9851 C   0  0  0  0  0  0  0  0  0  0  0  0
   -7.4404   93.6022   10.0193 C   0  0  0  0  0  0  0  0  0  0  0  0
   -6.4618   92.6126    9.4117 C   0  0  0  0  0  0  0  0  0  0  0  0
   -5.1385   93.2010    9.3503 N   0  0  0  0  0  0  0  0  0  0  0  0
   -4.0253   92.5063    8.8090 C   0  0  0  0  0  0  0  0  0  0  0  0
   -3.2367   91.8358    9.5756 N   0  0  0  0  0  0  0  0  0  0  0  0
   -3.7523   92.5295    7.4154 N   0  0  0  0  0  0  0  0  0  0  0  0
   -6.7189   96.0696    5.7770 N   0  0  0  0  0  0  0  0  0  0  0  0
   -7.8871   96.3647    4.9693 C   0  0  2  0  0  0  0  0  0  0  0  0
   -9.1597   96.4463    5.6329 C   0  0  0  0  0  0  0  0  0  0  0  0
   -9.8638   95.4436    5.9339 O   0  0  0  0  0  0  0  0  0  0  0  0
   -7.7351   95.2954    3.9096 C   0  0  0  0  0  0  0  0  0  0  0  0
   -6.2148   95.3609    3.6811 C   0  0  0  0  0  0  0  0  0  0  0  0
   -5.6823   96.3280    4.7406 C   0  0  0  0  0  0  0  0  0  0  0  0
   -9.7083   97.7062    5.9942 N   0  0  0  0  0  0  0  0  0  0  0  0
   -8.8876   98.7881    6.5722 C   0  0  2  0  0  0  0  0  0  0  0  0
   -9.0929   98.8138    8.0246 C   0  0  0  0  0  0  0  0  0  0  0  0
   -9.5512   97.6856    8.4764 O   0  0  0  0  0  0  0  0  0  0  0  0
   -9.2743   99.9553    5.7736 C   0  0  0  0  0  0  0  0  0  0  0  0
  -10.6477   99.6203    5.2144 C   0  0  0  0  0  0  0  0  0  0  0  0
  -11.0451   98.3284    5.9519 C   0  0  0  0  0  0  0  0  0  0  0  0
   -8.8947   99.7824    8.9919 N   0  0  0  0  0  0  0  0  0  0  0  0
   -9.5466  101.0127    9.3392 C   0  0  2  0  0  0  0  0  0  0  0  0
   -9.7485  100.9856   10.8426 C   0  0  0  0  0  0  0  0  0  0  0  0
  -10.3629   99.9306   11.2348 O   0  0  0  0  0  0  0  0  0  0  0  0
  -10.9406  101.2010    8.7994 C   0  0  2  0  0  0  0  0  0  0  0  0
  -11.9166  101.0193    9.9779 C   0  0  0  0  0  0  0  0  0  0  0  0
  -11.3550  100.1133    7.8262 C   0  0  0  0  0  0  0  0  0  0  0  0
  -11.4565   99.9271   10.8916 C   0  0  0  0  0  0  0  0  0  0  0  0
   -9.3458  101.9478   11.7539 N   0  0  0  0  0  0  0  0  0  0  0  0
   -8.0447  102.4781   12.0487 C   0  0  2  0  0  0  0  0  0  0  0  0
   -7.1737  102.7378   10.8927 C   0  0  0  0  0  0  0  0  0  0  0  0
   -6.5141  101.7079   10.4804 O   0  0  0  0  0  0  0  0  0  0  0  0
   -7.3538  101.4422   12.9573 C   0  0  0  0  0  0  0  0  0  0  0  0
   -8.2232  101.2440   14.5290 S   0  0  0  0  0  0  0  0  0  0  0  0
   -6.9655  103.9090   10.1972 N   0  0  0  0  0  0  0  0  0  0  0  0
   -6.5837  105.2388   10.7522 C   0  0  2  0  0  0  0  0  0  0  0  0
   -6.3462  105.1581   12.1581 C   0  0  0  0  0  0  0  0  0  0  0  0
   -5.4532  104.1463   12.3754 O   0  0  0  0  0  0  0  0  0  0  0  0
   -7.3185  106.2419   10.0049 C   0  0  0  0  0  0  0  0  0  0  0  0
   -7.7342  107.4942   10.6326 C   0  0  0  0  0  0  0  0  0  0  0  0
   -9.0455  107.8527   10.8456 C   0  0  0  0  0  0  0  0  0  0  0  0
   -6.7480  108.3547   11.1223 C   0  0  0  0  0  0  0  0  0  0  0  0
   -9.3590  109.0126   11.5129 C   0  0  0  0  0  0  0  0  0  0  0  0
   -7.0473  109.5193   11.7915 C   0  0  0  0  0  0  0  0  0  0  0  0
   -8.3694  109.8580   11.9923 C   0  0  0  0  0  0  0  0  0  0  0  0
   -6.7097  105.7485   13.3584 N   0  0  0  0  0  0  0  0  0  0  0  0
   -6.7982  107.1263   13.7649 C   0  0  2  0  0  0  0  0  0  0  0  0
   -6.0184  107.4063   15.0325 C   0  0  0  0  0  0  0  0  0  0  0  0
   -6.6500  107.9627   16.0076 O   0  0  0  0  0  0  0  0  0  0  0  0
   -8.2828  107.1515   14.1990 C   0  0  0  0  0  0  0  0  0  0  0  0
   -8.3643  105.8249   14.9703 C   0  0  0  0  0  0  0  0  0  0  0  0
   -7.0874  105.0970   14.6497 C   0  0  0  0  0  0  0  0  0  0  0  0
   -4.6791  107.1268   15.2663 N   0  0  0  0  0  0  0  0  0  0  0  0
   -3.5161  107.4390   14.4653 C   0  0  2  0  0  0  0  0  0  0  0  0
   -2.3037  107.4400   15.3853 C   0  0  0  0  0  0  0  0  0  0  0  0
   -1.5639  108.4281   15.2870 O   0  0  0  0  0  0  0  0  0  0  0  0
   -3.6016  108.7426   13.7265 C   0  0  0  0  0  0  0  0  0  0  0  0
   -2.3591  109.0790   12.9882 C   0  0  0  0  0  0  0  0  0  0  0  0
   -2.4569  109.4182   11.7780 O   0  0  0  0  0  0  0  0  0  0  0  0
   -1.0707  109.0390   13.5663 N   0  0  0  0  0  0  0  0  0  0  0  0
   -2.3391  105.4156   17.2943 O   0  0  0  0  0  0  0  0  0  0  0  0
   -5.0988  106.6039   17.8215 H   0  0  0  0  0  0  0  0  0  0  0  0
   -2.7647   90.9589    9.2910 H   0  0  0  0  0  0  0  0  0  0  0  0
  1  2  1  0
  1108  1  0
  1114  1  0
  2  3  1  0
  2114  1  1
  3  4  2  0
  3  5  1  0
  5  6  1  0
  6  7  1  0
  6  9  1  1
  7  8  2  0
  7 16  1  0
  9 10  1  0
 10 11  1  0
 11 12  1  0
 12 13  1  0
 13 14  2  0
 13 15  1  0
 17 16  1  6
 17 18  1  0
 17 20  1  0
 18 19  2  0
 18 22  1  0
 20 21  1  0
 21 87  1  0
 22 23  1  0
 23 24  1  0
 23 26  1  1
 24 25  2  0
 24 34  1  0
 26 27  1  0
 27 28  2  0
 27 29  1  0
 28 30  1  0
 29 31  2  0
 30 32  2  0
 31 32  1  0
 32 33  1  0
 34 35  1  0
 35 36  1  0
 35 38  1  1
 36 37  2  0
 36 43  1  0
 38 39  1  0
 39 40  1  0
 40 41  1  0
 41 42  1  0
 43 44  1  0
 44 45  1  0
 44 47  1  6
 45 46  2  0
 45 49  1  0
 47 48  1  0
 49 50  1  0
 50 51  1  0
 50 53  1  1
 51 52  2  0
 51 60  1  0
 53 54  1  0
 54 55  1  0
 55 56  1  0
 56 57  1  0
 57 58  2  0
 57 59  1  0
 60 61  1  0
 60 66  1  0
 61 62  1  0
 61 64  1  6
 62 63  2  0
 62 67  1  0
 64 65  1  0
 65 66  1  0
 67 68  1  0
 67 73  1  0
 68 69  1  0
 68 71  1  6
 69 70  2  0
 69 74  1  0
 71 72  1  0
 72 73  1  0
 75 74  1  6
 75 76  1  0
 75 78  1  0
 76 77  2  0
 76 82  1  0
 78 79  1  0
 78 80  1  6
 79 81  1  0
 83 82  1  6
 83 84  1  0
 83 86  1  0
 84 85  2  0
 84 88  1  0
 86 87  1  0
 88 89  1  0
 89 90  1  0
 89 92  1  1
 90 91  2  0
 90 99  1  0
 92 93  1  0
 93 94  2  0
 93 95  1  0
 94 96  1  0
 95 97  2  0
 96 98  2  0
 97 98  1  0
 99100  1  0
 99105  1  0
100101  1  0
100103  1  1
101102  2  0
101106  1  0
103104  1  0
104105  1  0
106107  1  0
107108  1  0
107110  1  1
108109  2  0
110111  1  0
111112  2  0
111113  1  0
 14115  1  0
 58116  1  0
M  CHG  1  42   1
M  END
$$$$
