
     RDKit          3D

116123  0  0  0  0  0  0  0  0999 V2000
   -1.6705  105.8442   16.3501 N   0  0  0  0  0  0  0  0  0  0  0  0
   -0.8786  104.7171   16.3119 C   0  0  2  0  0  0  0  0  0  0  0  0
   -1.0426  103.9552   15.0479 C   0  0  0  0  0  0  0  0  0  0  0  0
   -0.3139  104.4278   14.0948 O   0  0  0  0  0  0  0  0  0  0  0  0
   -1.8683  102.8451   14.8280 N   0  0  0  0  0  0  0  0  0  0  0  0
   -1.9556  101.6199   15.5781 C   0  0  2  0  0  0  0  0  0  0  0  0
   -3.3583  101.4970   16.0345 C   0  0  0  0  0  0  0  0  0  0  0  0
   -3.6271  102.0110   17.1685 O   0  0  0  0  0  0  0  0  0  0  0  0
   -1.0019  101.4870   16.7161 C   0  0  0  0  0  0  0  0  0  0  0  0
   -0.7172  100.0568   17.1030 C   0  0  0  0  0  0  0  0  0  0  0  0
   -0.1855  100.0942   18.5249 C   0  0  0  0  0  0  0  0  0  0  0  0
   -1.1986  100.4628   19.4810 N   0  0  0  0  0  0  0  0  0  0  0  0
   -1.8992   99.5209   20.2916 C   0  0  0  0  0  0  0  0  0  0  0  0
   -2.7937  100.0119   21.1091 N   0  0  0  0  0  0  0  0  0  0  0  0
   -1.6460   98.1278   20.2222 N   0  0  0  0  0  0  0  0  0  0  0  0
   -4.4119  100.8653   15.3248 N   0  0  0  0  0  0  0  0  0  0  0  0
   -4.3633   99.5467   14.7255 C   0  0  2  0  0  0  0  0  0  0  0  0
   -3.8712   99.6097   13.3262 C   0  0  0  0  0  0  0  0  0  0  0  0
   -3.7774  100.7902   12.8209 O   0  0  0  0  0  0  0  0  0  0  0  0
   -5.8154   99.0158   14.7358 C   0  0  0  0  0  0  0  0  0  0  0  0
   -6.8895  100.0645   15.7251 S   0  0  0  0  0  0  0  0  0  0  0  0
   -3.5076   98.5577   12.5090 N   0  0  0  0  0  0  0  0  0  0  0  0
   -2.5119   97.5143   12.7133 C   0  0  2  0  0  0  0  0  0  0  0  0
   -3.1496   96.2688   13.1965 C   0  0  0  0  0  0  0  0  0  0  0  0
   -3.4166   96.2476   14.4514 O   0  0  0  0  0  0  0  0  0  0  0  0
   -1.3379   97.9620   13.5202 C   0  0  0  0  0  0  0  0  0  0  0  0
   -1.5346   98.0268   14.9712 C   0  0  0  0  0  0  0  0  0  0  0  0
   -0.5814   97.5262   15.8277 C   0  0  0  0  0  0  0  0  0  0  0  0
   -2.6549   98.6070   15.4999 C   0  0  0  0  0  0  0  0  0  0  0  0
   -0.7626   97.6132   17.1964 C   0  0  0  0  0  0  0  0  0  0  0  0
   -2.8378   98.6949   16.8896 C   0  0  0  0  0  0  0  0  0  0  0  0
   -1.8838   98.1942   17.7226 C   0  0  0  0  0  0  0  0  0  0  0  0
   -2.0718   98.2858   19.1050 O   0  0  0  0  0  0  0  0  0  0  0  0
   -3.4868   95.1415   12.4548 N   0  0  0  0  0  0  0  0  0  0  0  0
   -2.8737   94.7304   11.1796 C   0  0  2  0  0  0  0  0  0  0  0  0
   -3.8086   93.8193   10.4797 C   0  0  0  0  0  0  0  0  0  0  0  0
   -3.4323   92.5824   10.4522 O   0  0  0  0  0  0  0  0  0  0  0  0
   -1.6015   94.0074   11.6124 C   0  0  0  0  0  0  0  0  0  0  0  0
   -0.7753   93.4775   10.4930 C   0  0  0  0  0  0  0  0  0  0  0  0
    0.2291   92.4623   10.9884 C   0  0  0  0  0  0  0  0  0  0  0  0
    1.1690   93.1169   11.9484 C   0  0  0  0  0  0  0  0  0  0  0  0
    2.3115   92.2829   12.2286 N   0  0  0  0  0  4  0  0  0  0  0  0
   -5.0139   94.0895    9.8589 N   0  0  0  0  0  0  0  0  0  0  0  0
   -5.3387   94.9231    8.7263 C   0  0  2  0  0  0  0  0  0  0  0  0
   -6.1158   94.1122    7.7210 C   0  0  0  0  0  0  0  0  0  0  0  0
   -5.8957   92.8498    7.7981 O   0  0  0  0  0  0  0  0  0  0  0  0
   -4.1283   95.5480    8.0588 C   0  0  0  0  0  0  0  0  0  0  0  0
   -3.9359   95.0731    6.7798 O   0  0  0  0  0  0  0  0  0  0  0  0
   -6.9977   94.5542    6.7677 N   0  0  0  0  0  0  0  0  0  0  0  0
   -8.1474   95.4387    6.8666 C   0  0  2  0  0  0  0  0  0  0  0  0
   -7.6447   96.7463    6.3707 C   0  0  0  0  0  0  0  0  0  0  0  0
   -6.9683   97.4264    7.2196 O   0  0  0  0  0  0  0  0  0  0  0  0
   -8.7859   95.4752    8.2020 C   0  0  0  0  0  0  0  0  0  0  0  0
   -8.2030   94.3789    9.0668 C   0  0  0  0  0  0  0  0  0  0  0  0
   -7.1972   93.5468    8.2909 C   0  0  0  0  0  0  0  0  0  0  0  0
   -6.4727   94.3891    7.3600 N   0  0  0  0  0  0  0  0  0  0  0  0
   -5.3748   93.9077    6.6000 C   0  0  0  0  0  0  0  0  0  0  0  0
   -4.3468   94.6549    6.3899 N   0  0  0  0  0  0  0  0  0  0  0  0
   -5.3781   92.5964    6.0545 N   0  0  0  0  0  0  0  0  0  0  0  0
   -7.8035   97.3298    5.1173 N   0  0  0  0  0  0  0  0  0  0  0  0
   -9.0233   97.7868    4.4791 C   0  0  2  0  0  0  0  0  0  0  0  0
  -10.2210   97.8312    5.2728 C   0  0  0  0  0  0  0  0  0  0  0  0
  -10.9507   96.8286    5.5052 O   0  0  0  0  0  0  0  0  0  0  0  0
   -9.0339   96.8708    3.2748 C   0  0  0  0  0  0  0  0  0  0  0  0
   -7.5405   96.8999    2.9047 C   0  0  0  0  0  0  0  0  0  0  0  0
   -6.8556   97.6843    4.0259 C   0  0  0  0  0  0  0  0  0  0  0  0
  -10.6591   99.0513    5.8544 N   0  0  0  0  0  0  0  0  0  0  0  0
   -9.7264  100.0039    6.4874 C   0  0  2  0  0  0  0  0  0  0  0  0
   -9.7924   99.8350    7.9432 C   0  0  0  0  0  0  0  0  0  0  0  0
  -10.2710   98.6761    8.2825 O   0  0  0  0  0  0  0  0  0  0  0  0
  -10.1180  101.2875    5.8969 C   0  0  0  0  0  0  0  0  0  0  0  0
  -11.5550  101.0956    5.4393 C   0  0  0  0  0  0  0  0  0  0  0  0
  -11.9557   99.7321    6.0320 C   0  0  0  0  0  0  0  0  0  0  0  0
   -9.4484  100.6487    9.0073 N   0  0  0  0  0  0  0  0  0  0  0  0
   -9.9923  101.8460    9.5817 C   0  0  2  0  0  0  0  0  0  0  0  0
  -10.0532  101.6177   11.0803 C   0  0  0  0  0  0  0  0  0  0  0  0
  -10.6883  100.5465   11.3865 O   0  0  0  0  0  0  0  0  0  0  0  0
  -11.4174  102.1701    9.2159 C   0  0  2  0  0  0  0  0  0  0  0  0
  -11.3775  103.0405    7.9451 C   0  0  0  0  0  0  0  0  0  0  0  0
  -12.1062  103.0607   10.2330 C   0  0  0  0  0  0  0  0  0  0  0  0
   -9.9922  103.5419    7.6818 C   0  0  0  0  0  0  0  0  0  0  0  0
   -9.5114  102.4238   12.0678 N   0  0  0  0  0  0  0  0  0  0  0  0
   -8.1599  102.8491   12.2985 C   0  0  2  0  0  0  0  0  0  0  0  0
   -7.3877  103.2291   11.1061 C   0  0  0  0  0  0  0  0  0  0  0  0
   -6.8307  102.2388   10.4939 O   0  0  0  0  0  0  0  0  0  0  0  0
   -7.4479  101.6664   12.9844 C   0  0  0  0  0  0  0  0  0  0  0  0
   -8.1758  101.2890   14.5946 S   0  0  0  0  0  0  0  0  0  0  0  0
   -7.1781  104.4758   10.5576 N   0  0  0  0  0  0  0  0  0  0  0  0
   -6.6693  105.6964   11.2456 C   0  0  2  0  0  0  0  0  0  0  0  0
   -6.3059  105.4091   12.5966 C   0  0  0  0  0  0  0  0  0  0  0  0
   -5.4566  104.3380   12.5839 O   0  0  0  0  0  0  0  0  0  0  0  0
   -7.4116  106.8260   10.7188 C   0  0  0  0  0  0  0  0  0  0  0  0
   -6.8107  108.1561   10.6502 C   0  0  0  0  0  0  0  0  0  0  0  0
   -7.2435  109.2373   11.3831 C   0  0  0  0  0  0  0  0  0  0  0  0
   -5.6765  108.3356    9.8539 C   0  0  0  0  0  0  0  0  0  0  0  0
   -6.5793  110.4392   11.3245 C   0  0  0  0  0  0  0  0  0  0  0  0
   -5.0021  109.5333    9.7850 C   0  0  0  0  0  0  0  0  0  0  0  0
   -5.4554  110.6032   10.5283 C   0  0  0  0  0  0  0  0  0  0  0  0
   -6.5200  105.8411   13.8961 N   0  0  0  0  0  0  0  0  0  0  0  0
   -6.4898  107.1509   14.4918 C   0  0  2  0  0  0  0  0  0  0  0  0
   -5.5795  107.2156   15.7002 C   0  0  0  0  0  0  0  0  0  0  0  0
   -6.0833  107.6575   16.8003 O   0  0  0  0  0  0  0  0  0  0  0  0
   -7.9231  107.1812   15.0731 C   0  0  0  0  0  0  0  0  0  0  0  0
   -8.0086  105.7645   15.6624 C   0  0  0  0  0  0  0  0  0  0  0  0
   -6.8120  105.0325   15.1191 C   0  0  0  0  0  0  0  0  0  0  0  0
   -4.2426  106.8467   15.7576 N   0  0  0  0  0  0  0  0  0  0  0  0
   -3.1438  107.2160   14.8927 C   0  0  2  0  0  0  0  0  0  0  0  0
   -1.8524  107.0341   15.6771 C   0  0  0  0  0  0  0  0  0  0  0  0
   -1.0690  107.9922   15.6388 O   0  0  0  0  0  0  0  0  0  0  0  0
   -3.2226  108.6127   14.3491 C   0  0  0  0  0  0  0  0  0  0  0  0
   -2.4100  108.8098   13.1231 C   0  0  0  0  0  0  0  0  0  0  0  0
   -3.0117  108.9561   12.0251 O   0  0  0  0  0  0  0  0  0  0  0  0
   -0.9976  108.8415   13.1177 N   0  0  0  0  0  0  0  0  0  0  0  0
   -1.8257  104.7658   17.2889 O   0  0  0  0  0  0  0  0  0  0  0  0
   -3.1197   99.3995   21.8785 H   0  0  0  0  0  0  0  0  0  0  0  0
   -3.4923   94.3345    5.9000 H   0  0  0  0  0  0  0  0  0  0  0  0
  1  2  1  0
  1108  1  0
  1114  1  0
  2  3  1  0
  2114  1  1
  3  4  2  0
  3  5  1  0
  5  6  1  0
  6  7  1  0
  6  9  1  1
  7  8  2  0
  7 16  1  0
  9 10  1  0
 10 11  1  0
 11 12  1  0
 12 13  1  0
 13 14  2  0
 13 15  1  0
 17 16  1  6
 17 18  1  0
 17 20  1  0
 18 19  2  0
 18 22  1  0
 20 21  1  0
 21 87  1  0
 22 23  1  0
 23 24  1  0
 23 26  1  1
 24 25  2  0
 24 34  1  0
 26 27  1  0
 27 28  2  0
 27 29  1  0
 28 30  1  0
 29 31  2  0
 30 32  2  0
 31 32  1  0
 32 33  1  0
 34 35  1  0
 35 36  1  0
 35 38  1  1
 36 37  2  0
 36 43  1  0
 38 39  1  0
 39 40  1  0
 40 41  1  0
 41 42  1  0
 43 44  1  0
 44 45  1  0
 44 47  1  6
 45 46  2  0
 45 49  1  0
 47 48  1  0
 49 50  1  0
 50 51  1  0
 50 53  1  1
 51 52  2  0
 51 60  1  0
 53 54  1  0
 54 55  1  0
 55 56  1  0
 56 57  1  0
 57 58  2  0
 57 59  1  0
 60 61  1  0
 60 66  1  0
 61 62  1  0
 61 64  1  6
 62 63  2  0
 62 67  1  0
 64 65  1  0
 65 66  1  0
 67 68  1  0
 67 73  1  0
 68 69  1  0
 68 71  1  1
 69 70  2  0
 69 74  1  0
 71 72  1  0
 72 73  1  0
 75 74  1  6
 75 76  1  0
 75 78  1  0
 76 77  2  0
 76 82  1  0
 78 79  1  0
 78 80  1  1
 79 81  1  0
 83 82  1  6
 83 84  1  0
 83 86  1  0
 84 85  2  0
 84 88  1  0
 86 87  1  0
 88 89  1  0
 89 90  1  0
 89 92  1  1
 90 91  2  0
 90 99  1  0
 92 93  1  0
 93 94  2  0
 93 95  1  0
 94 96  1  0
 95 97  2  0
 96 98  2  0
 97 98  1  0
 99100  1  0
 99105  1  0
100101  1  0
100103  1  1
101102  2  0
101106  1  0
103104  1  0
104105  1  0
106107  1  0
107108  1  0
107110  1  1
108109  2  0
110111  1  0
111112  2  0
111113  1  0
 14115  1  0
 58116  1  0
M  CHG  1  42   1
M  END
$$$$
