
     RDKit          3D

116123  0  0  0  0  0  0  0  0999 V2000
   -3.1402  106.9809   17.3660 N   0  0  0  0  0  0  0  0  0  0  0  0
   -2.1175  106.0701   17.5189 C   0  0  2  0  0  0  0  0  0  0  0  0
   -1.9256  105.2293   16.3099 C   0  0  0  0  0  0  0  0  0  0  0  0
   -1.1952  105.8118   15.4211 O   0  0  0  0  0  0  0  0  0  0  0  0
   -2.4404  103.9473   16.0782 N   0  0  0  0  0  0  0  0  0  0  0  0
   -2.3543  102.7744   16.9078 C   0  0  2  0  0  0  0  0  0  0  0  0
   -3.7432  102.3492   17.1925 C   0  0  0  0  0  0  0  0  0  0  0  0
   -4.2781  102.8414   18.2384 O   0  0  0  0  0  0  0  0  0  0  0  0
   -1.5655  102.9250   18.1637 C   0  0  0  0  0  0  0  0  0  0  0  0
   -0.2232  103.5830   17.9599 C   0  0  0  0  0  0  0  0  0  0  0  0
   -0.3487  104.4365   16.7102 C   0  0  0  0  0  0  0  0  0  0  0  0
   -1.7201  104.7336   16.3828 N   0  0  0  0  0  0  0  0  0  0  0  0
   -2.1098  105.5433   15.2748 C   0  0  0  0  0  0  0  0  0  0  0  0
   -3.3136  106.0512   15.3231 N   0  0  0  0  0  0  0  0  0  0  0  0
   -1.2468  105.7886   14.1773 N   0  0  0  0  0  0  0  0  0  0  0  0
   -4.5165  101.4539   16.4093 N   0  0  0  0  0  0  0  0  0  0  0  0
   -4.0879  100.1554   15.9293 C   0  0  2  0  0  0  0  0  0  0  0  0
   -3.4303  100.2626   14.6025 C   0  0  0  0  0  0  0  0  0  0  0  0
   -3.5346  101.4057   14.0194 O   0  0  0  0  0  0  0  0  0  0  0  0
   -5.3696   99.3004   15.7996 C   0  0  0  0  0  0  0  0  0  0  0  0
   -6.7809  100.1160   16.5580 S   0  0  0  0  0  0  0  0  0  0  0  0
   -2.7275   99.2859   13.9252 N   0  0  0  0  0  0  0  0  0  0  0  0
   -1.5613   98.5161   14.3368 C   0  0  2  0  0  0  0  0  0  0  0  0
   -1.9636   97.1814   14.8348 C   0  0  0  0  0  0  0  0  0  0  0  0
   -2.3932   97.1604   16.0437 O   0  0  0  0  0  0  0  0  0  0  0  0
   -0.6443   99.2656   15.2461 C   0  0  0  0  0  0  0  0  0  0  0  0
   -1.0359   99.3254   16.6572 C   0  0  0  0  0  0  0  0  0  0  0  0
   -0.1227   99.6881   17.6202 C   0  0  0  0  0  0  0  0  0  0  0  0
   -2.3196   99.0468   17.0392 C   0  0  0  0  0  0  0  0  0  0  0  0
   -0.5061   99.7663   18.9471 C   0  0  0  0  0  0  0  0  0  0  0  0
   -2.7077   99.1266   18.3866 C   0  0  0  0  0  0  0  0  0  0  0  0
   -1.7906   99.4874   19.3264 C   0  0  0  0  0  0  0  0  0  0  0  0
   -2.1839   99.5657   20.6658 O   0  0  0  0  0  0  0  0  0  0  0  0
   -1.9300   95.9711   14.1501 N   0  0  0  0  0  0  0  0  0  0  0  0
   -1.0664   95.6525   12.9996 C   0  0  2  0  0  0  0  0  0  0  0  0
   -1.6636   94.5143   12.2634 C   0  0  0  0  0  0  0  0  0  0  0  0
   -1.0183   93.4001   12.3834 O   0  0  0  0  0  0  0  0  0  0  0  0
    0.2619   95.2699   13.6459 C   0  0  0  0  0  0  0  0  0  0  0  0
    1.4604   95.8964   13.0234 C   0  0  0  0  0  0  0  0  0  0  0  0
    1.8446   95.1885   11.7444 C   0  0  0  0  0  0  0  0  0  0  0  0
    2.9593   95.9291   11.0790 C   0  0  0  0  0  0  0  0  0  0  0  0
    3.6761   95.0914   10.1496 N   0  0  0  0  0  4  0  0  0  0  0  0
   -2.7988   94.4637   11.4761 N   0  0  0  0  0  0  0  0  0  0  0  0
   -3.1400   95.1409   10.2481 C   0  0  2  0  0  0  0  0  0  0  0  0
   -3.5647   94.1219    9.2218 C   0  0  0  0  0  0  0  0  0  0  0  0
   -3.0789   92.9515    9.4277 O   0  0  0  0  0  0  0  0  0  0  0  0
   -2.0198   95.9981    9.6899 C   0  0  0  0  0  0  0  0  0  0  0  0
   -1.8626   95.8294    8.3315 O   0  0  0  0  0  0  0  0  0  0  0  0
   -4.3799   94.2973    8.1325 N   0  0  0  0  0  0  0  0  0  0  0  0
   -5.7015   94.8917    8.0142 C   0  0  2  0  0  0  0  0  0  0  0  0
   -5.4416   96.2545    7.4816 C   0  0  0  0  0  0  0  0  0  0  0  0
   -5.0625   97.1152    8.3511 O   0  0  0  0  0  0  0  0  0  0  0  0
   -6.5136   94.8437    9.2514 C   0  0  0  0  0  0  0  0  0  0  0  0
   -7.1880   93.4934    9.3566 C   0  0  0  0  0  0  0  0  0  0  0  0
   -6.1922   92.4132    9.7410 C   0  0  0  0  0  0  0  0  0  0  0  0
   -4.8911   92.7187    9.1800 N   0  0  0  0  0  0  0  0  0  0  0  0
   -3.8083   91.8026    9.2361 C   0  0  0  0  0  0  0  0  0  0  0  0
   -2.6816   92.1522    9.7533 N   0  0  0  0  0  0  0  0  0  0  0  0
   -3.9364   90.4825    8.7282 N   0  0  0  0  0  0  0  0  0  0  0  0
   -5.5493   96.7218    6.1752 N   0  0  0  0  0  0  0  0  0  0  0  0
   -6.7381   96.8483    5.3537 C   0  0  2  0  0  0  0  0  0  0  0  0
   -8.0147   96.6501    5.9843 C   0  0  0  0  0  0  0  0  0  0  0  0
   -8.5250   95.5173    6.2032 O   0  0  0  0  0  0  0  0  0  0  0  0
   -6.3720   95.8968    4.2356 C   0  0  0  0  0  0  0  0  0  0  0  0
   -4.8867   96.2565    4.0553 C   0  0  0  0  0  0  0  0  0  0  0  0
   -4.5614   97.2340    5.1867 C   0  0  0  0  0  0  0  0  0  0  0  0
   -8.7940   97.7610    6.4057 N   0  0  0  0  0  0  0  0  0  0  0  0
   -8.1988   98.9356    7.0720 C   0  0  2  0  0  0  0  0  0  0  0  0
   -8.4298   98.8283    8.5168 C   0  0  0  0  0  0  0  0  0  0  0  0
   -8.6779   97.6078    8.8856 O   0  0  0  0  0  0  0  0  0  0  0  0
   -8.7822  100.0610    6.3352 C   0  0  0  0  0  0  0  0  0  0  0  0
  -10.0597   99.5155    5.7174 C   0  0  0  0  0  0  0  0  0  0  0  0
  -10.2224   98.1272    6.3631 C   0  0  0  0  0  0  0  0  0  0  0  0
   -8.4316   99.7515    9.5465 N   0  0  0  0  0  0  0  0  0  0  0  0
   -9.3067  100.8151    9.9494 C   0  0  2  0  0  0  0  0  0  0  0  0
   -9.5254  100.6533   11.4419 C   0  0  0  0  0  0  0  0  0  0  0  0
   -9.9395   99.4797   11.7512 O   0  0  0  0  0  0  0  0  0  0  0  0
  -10.7020  100.7778    9.3822 C   0  0  2  0  0  0  0  0  0  0  0  0
  -11.3634   99.4774    9.8781 C   0  0  0  0  0  0  0  0  0  0  0  0
  -10.7280  100.6341    7.8720 C   0  0  0  0  0  0  0  0  0  0  0  0
  -10.3397   98.4119   10.1155 C   0  0  0  0  0  0  0  0  0  0  0  0
   -9.3241  101.6117   12.4213 N   0  0  0  0  0  0  0  0  0  0  0  0
   -8.1496  102.3526   12.7852 C   0  0  2  0  0  0  0  0  0  0  0  0
   -7.3226  102.8434   11.6727 C   0  0  0  0  0  0  0  0  0  0  0  0
   -6.4761  101.9820   11.2174 O   0  0  0  0  0  0  0  0  0  0  0  0
   -7.2936  101.4050   13.6484 C   0  0  0  0  0  0  0  0  0  0  0  0
   -8.1373  100.9477   15.1795 S   0  0  0  0  0  0  0  0  0  0  0  0
   -7.3241  104.0757   11.0561 N   0  0  0  0  0  0  0  0  0  0  0  0
   -7.2057  105.4140   11.7018 C   0  0  2  0  0  0  0  0  0  0  0  0
   -6.9812  105.2870   13.1065 C   0  0  0  0  0  0  0  0  0  0  0  0
   -5.9194  104.4454   13.2873 O   0  0  0  0  0  0  0  0  0  0  0  0
   -8.1015  106.3109   10.9963 C   0  0  0  0  0  0  0  0  0  0  0  0
   -8.9022  107.2973   11.7181 C   0  0  0  0  0  0  0  0  0  0  0  0
   -9.4897  107.0686   12.9413 C   0  0  0  0  0  0  0  0  0  0  0  0
   -9.0213  108.5819   11.1813 C   0  0  0  0  0  0  0  0  0  0  0  0
  -10.1642  108.0707   13.5969 C   0  0  0  0  0  0  0  0  0  0  0  0
   -9.6941  109.5945   11.8262 C   0  0  0  0  0  0  0  0  0  0  0  0
  -10.2757  109.3410   13.0511 C   0  0  0  0  0  0  0  0  0  0  0  0
   -7.4684  105.7207   14.3295 N   0  0  0  0  0  0  0  0  0  0  0  0
   -7.8184  107.0290   14.8166 C   0  0  2  0  0  0  0  0  0  0  0  0
   -7.1259  107.3648   16.1207 C   0  0  0  0  0  0  0  0  0  0  0  0
   -7.8663  107.7303   17.1094 O   0  0  0  0  0  0  0  0  0  0  0  0
   -9.2889  106.7514   15.2086 C   0  0  0  0  0  0  0  0  0  0  0  0
   -9.1353  105.3851   15.8949 C   0  0  0  0  0  0  0  0  0  0  0  0
   -7.7401  104.9278   15.5674 C   0  0  0  0  0  0  0  0  0  0  0  0
   -5.7620  107.3226   16.3755 N   0  0  0  0  0  0  0  0  0  0  0  0
   -4.6641  107.8956   15.6287 C   0  0  2  0  0  0  0  0  0  0  0  0
   -3.4887  108.0602   16.5815 C   0  0  0  0  0  0  0  0  0  0  0  0
   -2.9441  109.1721   16.5649 O   0  0  0  0  0  0  0  0  0  0  0  0
   -4.9780  109.2063   14.9686 C   0  0  0  0  0  0  0  0  0  0  0  0
   -5.6911  110.1543   15.8602 C   0  0  0  0  0  0  0  0  0  0  0  0
   -5.2422  111.3275   15.9656 O   0  0  0  0  0  0  0  0  0  0  0  0
   -6.8459  109.8143   16.5996 N   0  0  0  0  0  0  0  0  0  0  0  0
   -3.1793  105.9439   18.3617 O   0  0  0  0  0  0  0  0  0  0  0  0
   -3.5400  106.7995   14.6433 H   0  0  0  0  0  0  0  0  0  0  0  0
   -1.9762   91.4805   10.1053 H   0  0  0  0  0  0  0  0  0  0  0  0
  1  2  1  0
  1108  1  0
  1114  1  0
  2  3  1  0
  2114  1  1
  3  4  2  0
  3  5  1  0
  5  6  1  0
  6  7  1  0
  6  9  1  1
  7  8  2  0
  7 16  1  0
  9 10  1  0
 10 11  1  0
 11 12  1  0
 12 13  1  0
 13 14  2  0
 13 15  1  0
 17 16  1  6
 17 18  1  0
 17 20  1  0
 18 19  2  0
 18 22  1  0
 20 21  1  0
 21 87  1  0
 22 23  1  0
 23 24  1  0
 23 26  1  1
 24 25  2  0
 24 34  1  0
 26 27  1  0
 27 28  2  0
 27 29  1  0
 28 30  1  0
 29 31  2  0
 30 32  2  0
 31 32  1  0
 32 33  1  0
 34 35  1  0
 35 36  1  0
 35 38  1  1
 36 37  2  0
 36 43  1  0
 38 39  1  0
 39 40  1  0
 40 41  1  0
 41 42  1  0
 43 44  1  0
 44 45  1  0
 44 47  1  6
 45 46  2  0
 45 49  1  0
 47 48  1  0
 49 50  1  0
 50 51  1  0
 50 53  1  1
 51 52  2  0
 51 60  1  0
 53 54  1  0
 54 55  1  0
 55 56  1  0
 56 57  1  0
 57 58  2  0
 57 59  1  0
 60 61  1  0
 60 66  1  0
 61 62  1  0
 61 64  1  6
 62 63  2  0
 62 67  1  0
 64 65  1  0
 65 66  1  0
 67 68  1  0
 67 73  1  0
 68 69  1  0
 68 71  1  6
 69 70  2  0
 69 74  1  0
 71 72  1  0
 72 73  1  0
 75 74  1  6
 75 76  1  0
 75 78  1  0
 76 77  2  0
 76 82  1  0
 78 79  1  0
 78 80  1  6
 79 81  1  0
 83 82  1  6
 83 84  1  0
 83 86  1  0
 84 85  2  0
 84 88  1  0
 86 87  1  0
 88 89  1  0
 89 90  1  0
 89 92  1  1
 90 91  2  0
 90 99  1  0
 92 93  1  0
 93 94  2  0
 93 95  1  0
 94 96  1  0
 95 97  2  0
 96 98  2  0
 97 98  1  0
 99100  1  0
 99105  1  0
100101  1  0
100103  1  1
101102  2  0
101106  1  0
103104  1  0
104105  1  0
106107  1  0
107108  1  0
107110  1  1
108109  2  0
110111  1  0
111112  2  0
111113  1  0
 14115  1  0
 58116  1  0
M  CHG  1  42   1
M  END
$$$$
