
     RDKit          3D

116123  0  0  0  0  0  0  0  0999 V2000
   -8.6624  108.0055   10.5004 N   0  0  0  0  0  0  0  0  0  0  0  0
   -9.2422  107.1345    9.6037 C   0  0  2  0  0  0  0  0  0  0  0  0
   -9.2462  105.7346   10.0994 C   0  0  0  0  0  0  0  0  0  0  0  0
  -10.2417  105.4972   10.8837 O   0  0  0  0  0  0  0  0  0  0  0  0
   -8.3189  104.7274    9.8026 N   0  0  0  0  0  0  0  0  0  0  0  0
   -7.8591  104.2713    8.5174 C   0  0  2  0  0  0  0  0  0  0  0  0
   -6.3889  104.4431    8.5036 C   0  0  0  0  0  0  0  0  0  0  0  0
   -5.9581  105.5610    8.0710 O   0  0  0  0  0  0  0  0  0  0  0  0
   -8.4917  104.9212    7.3343 C   0  0  0  0  0  0  0  0  0  0  0  0
   -8.0444  104.3423    6.0148 C   0  0  0  0  0  0  0  0  0  0  0  0
   -8.2163  102.8375    6.1258 C   0  0  0  0  0  0  0  0  0  0  0  0
   -9.2268  102.4689    7.0846 N   0  0  0  0  0  0  0  0  0  0  0  0
  -10.6226  102.4462    6.7913 C   0  0  0  0  0  0  0  0  0  0  0  0
  -11.3343  103.4263    7.2836 N   0  0  0  0  0  0  0  0  0  0  0  0
  -11.2146  101.4216    6.0107 N   0  0  0  0  0  0  0  0  0  0  0  0
   -5.4348  103.4820    8.9265 N   0  0  0  0  0  0  0  0  0  0  0  0
   -5.3979  102.0885    8.5303 C   0  0  2  0  0  0  0  0  0  0  0  0
   -6.1999  101.2457    9.4526 C   0  0  0  0  0  0  0  0  0  0  0  0
   -6.6026  101.8254   10.5295 O   0  0  0  0  0  0  0  0  0  0  0  0
   -3.9141  101.6600    8.6025 C   0  0  0  0  0  0  0  0  0  0  0  0
   -2.8332  103.0777    8.8354 S   0  0  0  0  0  0  0  0  0  0  0  0
   -6.5594   99.9221    9.2925 N   0  0  0  0  0  0  0  0  0  0  0  0
   -7.2933   99.2753    8.2132 C   0  0  2  0  0  0  0  0  0  0  0  0
   -6.3631   98.6209    7.2657 C   0  0  0  0  0  0  0  0  0  0  0  0
   -5.8170   99.4071    6.4113 O   0  0  0  0  0  0  0  0  0  0  0  0
   -8.3099  100.1606    7.5709 C   0  0  0  0  0  0  0  0  0  0  0  0
   -7.8134  101.4236    7.0175 C   0  0  0  0  0  0  0  0  0  0  0  0
   -8.6669  102.2833    6.3654 C   0  0  0  0  0  0  0  0  0  0  0  0
   -6.5009  101.7819    7.1604 C   0  0  0  0  0  0  0  0  0  0  0  0
   -8.1962  103.4850    5.8673 C   0  0  0  0  0  0  0  0  0  0  0  0
   -6.0241  103.0022    6.6545 C   0  0  0  0  0  0  0  0  0  0  0  0
   -6.8832  103.8411    6.0119 C   0  0  0  0  0  0  0  0  0  0  0  0
   -6.4021  105.0547    5.5114 O   0  0  0  0  0  0  0  0  0  0  0  0
   -6.0206   97.2743    7.2014 N   0  0  0  0  0  0  0  0  0  0  0  0
   -6.8312   96.1512    7.7040 C   0  0  2  0  0  0  0  0  0  0  0  0
   -5.9420   94.9850    7.9125 C   0  0  0  0  0  0  0  0  0  0  0  0
   -6.1024   94.0286    7.0570 O   0  0  0  0  0  0  0  0  0  0  0  0
   -7.8316   95.9020    6.5791 C   0  0  0  0  0  0  0  0  0  0  0  0
   -9.1168   96.6414    6.7140 C   0  0  0  0  0  0  0  0  0  0  0  0
   -9.8141   96.2929    8.0090 C   0  0  0  0  0  0  0  0  0  0  0  0
  -11.2121   96.8205    7.9812 C   0  0  0  0  0  0  0  0  0  0  0  0
  -11.8523   96.5680    6.7140 N   0  0  0  0  0  4  0  0  0  0  0  0
   -4.9729   94.7680    8.8742 N   0  0  0  0  0  0  0  0  0  0  0  0
   -5.0594   94.6701   10.3116 C   0  0  2  0  0  0  0  0  0  0  0  0
   -4.4080   93.3872   10.7609 C   0  0  0  0  0  0  0  0  0  0  0  0
   -4.3904   92.4755    9.8572 O   0  0  0  0  0  0  0  0  0  0  0  0
   -6.4772   94.7426   10.8461 C   0  0  0  0  0  0  0  0  0  0  0  0
   -7.2808   93.7513   10.3265 O   0  0  0  0  0  0  0  0  0  0  0  0
   -3.8537   93.0940   11.9810 N   0  0  0  0  0  0  0  0  0  0  0  0
   -2.8764   93.8114   12.7835 C   0  0  2  0  0  0  0  0  0  0  0  0
   -3.6903   94.5024   13.8171 C   0  0  0  0  0  0  0  0  0  0  0  0
   -4.2589   95.5827   13.4291 O   0  0  0  0  0  0  0  0  0  0  0  0
   -1.9651   94.6863   12.0110 C   0  0  0  0  0  0  0  0  0  0  0  0
   -0.7983   93.8694   11.5007 C   0  0  0  0  0  0  0  0  0  0  0  0
   -0.7038   92.5384   12.2258 C   0  0  0  0  0  0  0  0  0  0  0  0
   -1.8592   91.7216   11.9115 N   0  0  0  0  0  0  0  0  0  0  0  0
   -1.7439   90.3540   11.5495 C   0  0  0  0  0  0  0  0  0  0  0  0
   -2.7821   89.5917   11.5331 N   0  0  0  0  0  0  0  0  0  0  0  0
   -0.4886   89.7915   11.1959 N   0  0  0  0  0  0  0  0  0  0  0  0
   -3.9218   94.1388   15.1402 N   0  0  0  0  0  0  0  0  0  0  0  0
   -2.9740   94.0532   16.2350 C   0  0  2  0  0  0  0  0  0  0  0  0
   -1.6514   94.5743   16.0210 C   0  0  0  0  0  0  0  0  0  0  0  0
   -0.7309   93.9424   15.4336 O   0  0  0  0  0  0  0  0  0  0  0  0
   -3.0857   92.5770   16.5478 C   0  0  0  0  0  0  0  0  0  0  0  0
   -4.6074   92.3908   16.4146 C   0  0  0  0  0  0  0  0  0  0  0  0
   -5.1394   93.7263   15.8903 C   0  0  0  0  0  0  0  0  0  0  0  0
   -1.3024   95.8733   16.4787 N   0  0  0  0  0  0  0  0  0  0  0  0
   -2.2117   97.0281   16.3456 C   0  0  2  0  0  0  0  0  0  0  0  0
   -1.7877   97.8348   15.1960 C   0  0  0  0  0  0  0  0  0  0  0  0
   -1.0575   97.1571   14.3624 O   0  0  0  0  0  0  0  0  0  0  0  0
   -2.1855   97.6221   17.6858 C   0  0  0  0  0  0  0  0  0  0  0  0
   -0.8797   97.1521   18.3064 C   0  0  0  0  0  0  0  0  0  0  0  0
   -0.1321   96.4826   17.1386 C   0  0  0  0  0  0  0  0  0  0  0  0
   -2.0107   99.1491   14.8277 N   0  0  0  0  0  0  0  0  0  0  0  0
   -1.5581  100.4240   15.3064 C   0  0  2  0  0  0  0  0  0  0  0  0
   -1.1192  101.2127   14.0871 C   0  0  0  0  0  0  0  0  0  0  0  0
   -0.2611  100.5778   13.3765 O   0  0  0  0  0  0  0  0  0  0  0  0
   -0.3288  100.4079   16.1775 C   0  0  2  0  0  0  0  0  0  0  0  0
    0.8694  100.0622   15.2724 C   0  0  0  0  0  0  0  0  0  0  0  0
   -0.3362   99.2855   17.1983 C   0  0  0  0  0  0  0  0  0  0  0  0
    0.7256   98.6897   14.6934 C   0  0  0  0  0  0  0  0  0  0  0  0
   -1.5481  102.4759   13.7143 N   0  0  0  0  0  0  0  0  0  0  0  0
   -2.8628  102.9767   13.4288 C   0  0  2  0  0  0  0  0  0  0  0  0
   -3.9393  102.5152   14.3180 C   0  0  0  0  0  0  0  0  0  0  0  0
   -4.4477  101.3747   13.9920 O   0  0  0  0  0  0  0  0  0  0  0  0
   -3.1913  102.5277   11.9912 C   0  0  0  0  0  0  0  0  0  0  0  0
   -2.0624  103.2610   10.7858 S   0  0  0  0  0  0  0  0  0  0  0  0
   -4.4739  103.1200   15.4348 N   0  0  0  0  0  0  0  0  0  0  0  0
   -5.0089  104.5068   15.5479 C   0  0  2  0  0  0  0  0  0  0  0  0
   -5.0009  105.1639   14.2799 C   0  0  0  0  0  0  0  0  0  0  0  0
   -5.6393  104.3533   13.3833 O   0  0  0  0  0  0  0  0  0  0  0  0
   -4.6060  105.0170   16.8448 C   0  0  0  0  0  0  0  0  0  0  0  0
   -4.8888  106.3972   17.2321 C   0  0  0  0  0  0  0  0  0  0  0  0
   -4.0384  107.4538   16.9992 C   0  0  0  0  0  0  0  0  0  0  0  0
   -6.1296  106.6888   17.8047 C   0  0  0  0  0  0  0  0  0  0  0  0
   -4.4061  108.7381   17.3223 C   0  0  0  0  0  0  0  0  0  0  0  0
   -6.5106  107.9695   18.1339 C   0  0  0  0  0  0  0  0  0  0  0  0
   -5.6408  109.0124   17.8917 C   0  0  0  0  0  0  0  0  0  0  0  0
   -4.5710  106.3266   13.6599 N   0  0  0  0  0  0  0  0  0  0  0  0
   -4.6829  107.7127   14.0310 C   0  0  2  0  0  0  0  0  0  0  0  0
   -5.2909  108.5583   12.9317 C   0  0  0  0  0  0  0  0  0  0  0  0
   -4.6304  109.5945   12.5452 O   0  0  0  0  0  0  0  0  0  0  0  0
   -3.1805  108.0815   14.0298 C   0  0  0  0  0  0  0  0  0  0  0  0
   -2.7271  107.3755   12.7425 C   0  0  0  0  0  0  0  0  0  0  0  0
   -3.8765  106.4896   12.3462 C   0  0  0  0  0  0  0  0  0  0  0  0
   -6.4984  108.3397   12.2829 N   0  0  0  0  0  0  0  0  0  0  0  0
   -7.8114  108.0872   12.8341 C   0  0  2  0  0  0  0  0  0  0  0  0
   -8.8405  108.4788   11.7834 C   0  0  0  0  0  0  0  0  0  0  0  0
   -9.7608  109.2028   12.1862 O   0  0  0  0  0  0  0  0  0  0  0  0
   -8.0935  108.8042   14.1220 C   0  0  0  0  0  0  0  0  0  0  0  0
   -7.5936  110.2014   14.1353 C   0  0  0  0  0  0  0  0  0  0  0  0
   -8.4375  111.1371   14.1722 O   0  0  0  0  0  0  0  0  0  0  0  0
   -6.2228  110.5418   14.1076 N   0  0  0  0  0  0  0  0  0  0  0  0
   -8.1189  107.7817    9.1879 O   0  0  0  0  0  0  0  0  0  0  0  0
  -11.7605  103.2807    8.2166 H   0  0  0  0  0  0  0  0  0  0  0  0
   -3.7360   89.9225   11.3022 H   0  0  0  0  0  0  0  0  0  0  0  0
  1  2  1  0
  1108  1  0
  1114  1  0
  2  3  1  0
  2114  1  6
  3  4  2  0
  3  5  1  0
  5  6  1  0
  6  7  1  0
  6  9  1  6
  7  8  2  0
  7 16  1  0
  9 10  1  0
 10 11  1  0
 11 12  1  0
 12 13  1  0
 13 14  2  0
 13 15  1  0
 17 16  1  1
 17 18  1  0
 17 20  1  0
 18 19  2  0
 18 22  1  0
 20 21  1  0
 21 87  1  0
 22 23  1  0
 23 24  1  0
 23 26  1  6
 24 25  2  0
 24 34  1  0
 26 27  1  0
 27 28  2  0
 27 29  1  0
 28 30  1  0
 29 31  2  0
 30 32  2  0
 31 32  1  0
 32 33  1  0
 34 35  1  0
 35 36  1  0
 35 38  1  6
 36 37  2  0
 36 43  1  0
 38 39  1  0
 39 40  1  0
 40 41  1  0
 41 42  1  0
 43 44  1  0
 44 45  1  0
 44 47  1  6
 45 46  2  0
 45 49  1  0
 47 48  1  0
 49 50  1  0
 50 51  1  0
 50 53  1  6
 51 52  2  0
 51 60  1  0
 53 54  1  0
 54 55  1  0
 55 56  1  0
 56 57  1  0
 57 58  2  0
 57 59  1  0
 60 61  1  0
 60 66  1  0
 61 62  1  0
 61 64  1  6
 62 63  2  0
 62 67  1  0
 64 65  1  0
 65 66  1  0
 67 68  1  0
 67 73  1  0
 68 69  1  0
 68 71  1  1
 69 70  2  0
 69 74  1  0
 71 72  1  0
 72 73  1  0
 75 74  1  6
 75 76  1  0
 75 78  1  0
 76 77  2  0
 76 82  1  0
 78 79  1  0
 78 80  1  1
 79 81  1  0
 83 82  1  1
 83 84  1  0
 83 86  1  0
 84 85  2  0
 84 88  1  0
 86 87  1  0
 88 89  1  0
 89 90  1  0
 89 92  1  1
 90 91  2  0
 90 99  1  0
 92 93  1  0
 93 94  2  0
 93 95  1  0
 94 96  1  0
 95 97  2  0
 96 98  2  0
 97 98  1  0
 99100  1  0
 99105  1  0
100101  1  0
100103  1  6
101102  2  0
101106  1  0
103104  1  0
104105  1  0
106107  1  0
107108  1  0
107110  1  1
108109  2  0
110111  1  0
111112  2  0
111113  1  0
 14115  1  0
 58116  1  0
M  CHG  1  42   1
M  END
$$$$
