
     RDKit          3D

116123  0  0  0  0  0  0  0  0999 V2000
   -8.8956   97.9418    1.7795 N   0  0  0  0  0  0  0  0  0  0  0  0
   -9.2057   96.8263    2.5269 C   0  0  2  0  0  0  0  0  0  0  0  0
   -9.3715   97.1417    3.9686 C   0  0  0  0  0  0  0  0  0  0  0  0
  -10.5536   97.5796    4.2397 O   0  0  0  0  0  0  0  0  0  0  0  0
   -8.4123   97.0104    4.9810 N   0  0  0  0  0  0  0  0  0  0  0  0
   -7.6092   95.8662    5.3234 C   0  0  2  0  0  0  0  0  0  0  0  0
   -6.1948   96.2897    5.2179 C   0  0  0  0  0  0  0  0  0  0  0  0
   -5.6422   96.1242    4.0823 O   0  0  0  0  0  0  0  0  0  0  0  0
   -7.8662   94.6321    4.5277 C   0  0  0  0  0  0  0  0  0  0  0  0
   -6.7337   94.2625    3.6019 C   0  0  0  0  0  0  0  0  0  0  0  0
   -5.4683   94.8247    4.2254 C   0  0  0  0  0  0  0  0  0  0  0  0
   -5.1688   94.2221    5.4996 N   0  0  0  0  0  0  0  0  0  0  0  0
   -4.2171   93.1737    5.6729 C   0  0  0  0  0  0  0  0  0  0  0  0
   -4.6577   92.0777    6.2334 N   0  0  0  0  0  0  0  0  0  0  0  0
   -2.8660   93.3038    5.2637 N   0  0  0  0  0  0  0  0  0  0  0  0
   -5.4160   96.8565    6.2595 N   0  0  0  0  0  0  0  0  0  0  0  0
   -5.2865   96.3348    7.6054 C   0  0  2  0  0  0  0  0  0  0  0  0
   -6.3313   96.8917    8.5010 C   0  0  0  0  0  0  0  0  0  0  0  0
   -7.0182   97.8674    8.0171 O   0  0  0  0  0  0  0  0  0  0  0  0
   -3.8921   96.7773    8.1058 C   0  0  0  0  0  0  0  0  0  0  0  0
   -2.9038   97.4635    6.7699 S   0  0  0  0  0  0  0  0  0  0  0  0
   -6.6483   96.4901    9.7835 N   0  0  0  0  0  0  0  0  0  0  0  0
   -7.0504   95.1818   10.2824 C   0  0  2  0  0  0  0  0  0  0  0  0
   -5.8966   94.4709   10.8778 C   0  0  0  0  0  0  0  0  0  0  0  0
   -5.1170   93.8997   10.0337 O   0  0  0  0  0  0  0  0  0  0  0  0
   -7.8271   94.3799    9.2908 C   0  0  0  0  0  0  0  0  0  0  0  0
   -8.4555   95.1298    8.1996 C   0  0  0  0  0  0  0  0  0  0  0  0
   -9.3387   96.1490    8.4713 C   0  0  0  0  0  0  0  0  0  0  0  0
   -8.1575   94.8476    6.8946 C   0  0  0  0  0  0  0  0  0  0  0  0
   -9.9091   96.8688    7.4367 C   0  0  0  0  0  0  0  0  0  0  0  0
   -8.7370   95.5789    5.8450 C   0  0  0  0  0  0  0  0  0  0  0  0
   -9.6091   96.5847    6.1324 C   0  0  0  0  0  0  0  0  0  0  0  0
  -10.1817   97.3093    5.0827 O   0  0  0  0  0  0  0  0  0  0  0  0
   -5.5690   94.3572   12.2249 N   0  0  0  0  0  0  0  0  0  0  0  0
   -6.5055   94.4809   13.3557 C   0  0  2  0  0  0  0  0  0  0  0  0
   -5.7302   94.8023   14.5762 C   0  0  0  0  0  0  0  0  0  0  0  0
   -5.6515   93.8357   15.4317 O   0  0  0  0  0  0  0  0  0  0  0  0
   -7.1441   93.0977   13.4426 C   0  0  0  0  0  0  0  0  0  0  0  0
   -6.2034   91.9988   13.7945 C   0  0  0  0  0  0  0  0  0  0  0  0
   -6.1060   91.8218   15.2924 C   0  0  0  0  0  0  0  0  0  0  0  0
   -7.3852   91.2497   15.8120 C   0  0  0  0  0  0  0  0  0  0  0  0
   -7.3053   90.9586   17.2221 N   0  0  0  0  0  4  0  0  0  0  0  0
   -5.0813   95.9692   14.9343 N   0  0  0  0  0  0  0  0  0  0  0  0
   -5.5783   97.3028   15.1749 C   0  0  2  0  0  0  0  0  0  0  0  0
   -5.1015   97.7730   16.5253 C   0  0  0  0  0  0  0  0  0  0  0  0
   -4.8380   96.8160   17.3395 O   0  0  0  0  0  0  0  0  0  0  0  0
   -7.0887   97.4173   15.0934 C   0  0  0  0  0  0  0  0  0  0  0  0
   -7.7215   96.6400   16.0387 O   0  0  0  0  0  0  0  0  0  0  0  0
   -4.9252   99.0598   16.9668 N   0  0  0  0  0  0  0  0  0  0  0  0
   -4.2095  100.1813   16.3805 C   0  0  2  0  0  0  0  0  0  0  0  0
   -5.2762  101.0114   15.7628 C   0  0  0  0  0  0  0  0  0  0  0  0
   -5.6942  100.6005   14.6238 O   0  0  0  0  0  0  0  0  0  0  0  0
   -3.1026   99.8017   15.4732 C   0  0  0  0  0  0  0  0  0  0  0  0
   -1.7842   99.9524   16.2001 C   0  0  0  0  0  0  0  0  0  0  0  0
   -1.9852  100.5599   17.5773 C   0  0  0  0  0  0  0  0  0  0  0  0
   -3.3665  100.4053   17.9884 N   0  0  0  0  0  0  0  0  0  0  0  0
   -3.7823   99.3775   18.8748 C   0  0  0  0  0  0  0  0  0  0  0  0
   -4.9079   99.4641   19.4949 N   0  0  0  0  0  0  0  0  0  0  0  0
   -2.9747   98.2312   19.1001 N   0  0  0  0  0  0  0  0  0  0  0  0
   -5.8830  102.1654   16.2492 N   0  0  0  0  0  0  0  0  0  0  0  0
   -5.2909  103.4677   16.4894 C   0  0  2  0  0  0  0  0  0  0  0  0
   -3.9554  103.6973   16.0096 C   0  0  0  0  0  0  0  0  0  0  0  0
   -2.9139  103.3291   16.6191 O   0  0  0  0  0  0  0  0  0  0  0  0
   -5.5086  103.5698   17.9833 C   0  0  0  0  0  0  0  0  0  0  0  0
   -6.9303  102.9901   18.0857 C   0  0  0  0  0  0  0  0  0  0  0  0
   -7.2705  102.4882   16.6807 C   0  0  0  0  0  0  0  0  0  0  0  0
   -3.7342  104.3768   14.7815 N   0  0  0  0  0  0  0  0  0  0  0  0
   -4.5507  104.1201   13.5791 C   0  0  2  0  0  0  0  0  0  0  0  0
   -3.8030  103.2353   12.6789 C   0  0  0  0  0  0  0  0  0  0  0  0
   -2.8738  102.5735   13.3000 O   0  0  0  0  0  0  0  0  0  0  0  0
   -4.9022  105.4700   13.1274 C   0  0  0  0  0  0  0  0  0  0  0  0
   -3.8363  106.3795   13.7172 C   0  0  0  0  0  0  0  0  0  0  0  0
   -2.7943  105.4052   14.2967 C   0  0  0  0  0  0  0  0  0  0  0  0
   -3.8923  102.9674   11.3250 N   0  0  0  0  0  0  0  0  0  0  0  0
   -3.5783  103.6935   10.1278 C   0  0  2  0  0  0  0  0  0  0  0  0
   -2.7968  102.7445    9.2389 C   0  0  0  0  0  0  0  0  0  0  0  0
   -1.7797  102.2408    9.8360 O   0  0  0  0  0  0  0  0  0  0  0  0
   -2.6514  104.8703   10.2887 C   0  0  2  0  0  0  0  0  0  0  0  0
   -3.4820  106.0316   10.8684 C   0  0  0  0  0  0  0  0  0  0  0  0
   -2.1505  105.4197    8.9661 C   0  0  0  0  0  0  0  0  0  0  0  0
   -4.8644  105.5789   11.2200 C   0  0  0  0  0  0  0  0  0  0  0  0
   -3.0827  102.4081    7.9261 N   0  0  0  0  0  0  0  0  0  0  0  0
   -4.2528  101.8185    7.3395 C   0  0  2  0  0  0  0  0  0  0  0  0
   -5.5457  102.3084    7.8405 C   0  0  0  0  0  0  0  0  0  0  0  0
   -5.9551  101.7268    8.9174 O   0  0  0  0  0  0  0  0  0  0  0  0
   -4.1609  100.3063    7.6236 C   0  0  0  0  0  0  0  0  0  0  0  0
   -2.7231   99.5603    6.8225 S   0  0  0  0  0  0  0  0  0  0  0  0
   -6.3700  103.2875    7.3297 N   0  0  0  0  0  0  0  0  0  0  0  0
   -6.8953  103.3974    5.9390 C   0  0  2  0  0  0  0  0  0  0  0  0
   -6.5142  102.2651    5.1565 C   0  0  0  0  0  0  0  0  0  0  0  0
   -6.8796  101.1398    5.8411 O   0  0  0  0  0  0  0  0  0  0  0  0
   -6.8748  104.8036    5.5831 C   0  0  0  0  0  0  0  0  0  0  0  0
   -7.9748  105.4072    4.8344 C   0  0  0  0  0  0  0  0  0  0  0  0
   -8.0822  106.7536    4.5712 C   0  0  0  0  0  0  0  0  0  0  0  0
   -8.9434  104.5673    4.2784 C   0  0  0  0  0  0  0  0  0  0  0  0
   -9.1056  107.2396    3.7931 C   0  0  0  0  0  0  0  0  0  0  0  0
   -9.9738  105.0401    3.4981 C   0  0  0  0  0  0  0  0  0  0  0  0
  -10.0610  106.3941    3.2489 C   0  0  0  0  0  0  0  0  0  0  0  0
   -5.9080  101.9260    3.9570 N   0  0  0  0  0  0  0  0  0  0  0  0
   -6.1023  102.4017    2.6126 C   0  0  2  0  0  0  0  0  0  0  0  0
   -6.3570  101.2760    1.6321 C   0  0  0  0  0  0  0  0  0  0  0  0
   -5.5987  101.2107    0.5928 O   0  0  0  0  0  0  0  0  0  0  0  0
   -4.6578  102.8682    2.3141 C   0  0  0  0  0  0  0  0  0  0  0  0
   -3.8637  101.6924    2.9043 C   0  0  0  0  0  0  0  0  0  0  0  0
   -4.8633  100.8901    3.6919 C   0  0  0  0  0  0  0  0  0  0  0  0
   -7.3302  100.2910    1.7282 N   0  0  0  0  0  0  0  0  0  0  0  0
   -8.7496  100.4150    1.9759 C   0  0  2  0  0  0  0  0  0  0  0  0
   -9.4280   99.1657    1.4325 C   0  0  0  0  0  0  0  0  0  0  0  0
  -10.4149   99.3684    0.7127 O   0  0  0  0  0  0  0  0  0  0  0  0
   -9.3796  101.6412    1.3827 C   0  0  0  0  0  0  0  0  0  0  0  0
  -10.7642  101.8774    1.8616 C   0  0  0  0  0  0  0  0  0  0  0  0
  -11.0137  101.6898    3.0829 O   0  0  0  0  0  0  0  0  0  0  0  0
  -11.8201  102.3001    1.0236 N   0  0  0  0  0  0  0  0  0  0  0  0
   -8.0012   96.8212    1.8920 O   0  0  0  0  0  0  0  0  0  0  0  0
   -5.6772   91.8992    6.1890 H   0  0  0  0  0  0  0  0  0  0  0  0
   -5.6957  100.0576   19.1787 H   0  0  0  0  0  0  0  0  0  0  0  0
  1  2  1  0
  1108  1  0
  1114  1  0
  2  3  1  0
  2114  1  1
  3  4  2  0
  3  5  1  0
  5  6  1  0
  6  7  1  0
  6  9  1  6
  7  8  2  0
  7 16  1  0
  9 10  1  0
 10 11  1  0
 11 12  1  0
 12 13  1  0
 13 14  2  0
 13 15  1  0
 17 16  1  6
 17 18  1  0
 17 20  1  0
 18 19  2  0
 18 22  1  0
 20 21  1  0
 21 87  1  0
 22 23  1  0
 23 24  1  0
 23 26  1  6
 24 25  2  0
 24 34  1  0
 26 27  1  0
 27 28  2  0
 27 29  1  0
 28 30  1  0
 29 31  2  0
 30 32  2  0
 31 32  1  0
 32 33  1  0
 34 35  1  0
 35 36  1  0
 35 38  1  1
 36 37  2  0
 36 43  1  0
 38 39  1  0
 39 40  1  0
 40 41  1  0
 41 42  1  0
 43 44  1  0
 44 45  1  0
 44 47  1  1
 45 46  2  0
 45 49  1  0
 47 48  1  0
 49 50  1  0
 50 51  1  0
 50 53  1  6
 51 52  2  0
 51 60  1  0
 53 54  1  0
 54 55  1  0
 55 56  1  0
 56 57  1  0
 57 58  2  0
 57 59  1  0
 60 61  1  0
 60 66  1  0
 61 62  1  0
 61 64  1  1
 62 63  2  0
 62 67  1  0
 64 65  1  0
 65 66  1  0
 67 68  1  0
 67 73  1  0
 68 69  1  0
 68 71  1  6
 69 70  2  0
 69 74  1  0
 71 72  1  0
 72 73  1  0
 75 74  1  1
 75 76  1  0
 75 78  1  0
 76 77  2  0
 76 82  1  0
 78 79  1  0
 78 80  1  6
 79 81  1  0
 83 82  1  1
 83 84  1  0
 83 86  1  0
 84 85  2  0
 84 88  1  0
 86 87  1  0
 88 89  1  0
 89 90  1  0
 89 92  1  6
 90 91  2  0
 90 99  1  0
 92 93  1  0
 93 94  2  0
 93 95  1  0
 94 96  1  0
 95 97  2  0
 96 98  2  0
 97 98  1  0
 99100  1  0
 99105  1  0
100101  1  0
100103  1  6
101102  2  0
101106  1  0
103104  1  0
104105  1  0
106107  1  0
107108  1  0
107110  1  6
108109  2  0
110111  1  0
111112  2  0
111113  1  0
 14115  1  0
 58116  1  0
M  CHG  1  42   1
M  END
$$$$
