
     RDKit          3D

116123  0  0  0  0  0  0  0  0999 V2000
  -11.4399  101.1215    4.6385 N   0  0  0  0  0  0  0  0  0  0  0  0
  -11.1639   99.7837    4.4571 C   0  0  2  0  0  0  0  0  0  0  0  0
  -10.6358   99.1447    5.6892 C   0  0  0  0  0  0  0  0  0  0  0  0
  -11.5768   98.7812    6.4924 O   0  0  0  0  0  0  0  0  0  0  0  0
   -9.2929   98.9240    6.0212 N   0  0  0  0  0  0  0  0  0  0  0  0
   -8.2633   98.2823    5.2469 C   0  0  2  0  0  0  0  0  0  0  0  0
   -7.1720   99.2692    5.0856 C   0  0  0  0  0  0  0  0  0  0  0  0
   -7.2401  100.0190    4.0581 O   0  0  0  0  0  0  0  0  0  0  0  0
   -8.6918   97.7284    3.9310 C   0  0  0  0  0  0  0  0  0  0  0  0
   -8.3780   98.6310    2.7635 C   0  0  0  0  0  0  0  0  0  0  0  0
   -9.2461   99.8658    2.9298 C   0  0  0  0  0  0  0  0  0  0  0  0
  -10.0817  100.1090    1.7814 N   0  0  0  0  0  0  0  0  0  0  0  0
  -11.3702   99.5229    1.6042 C   0  0  0  0  0  0  0  0  0  0  0  0
  -12.3866  100.3453    1.6082 N   0  0  0  0  0  0  0  0  0  0  0  0
  -11.5487   98.1270    1.4332 N   0  0  0  0  0  0  0  0  0  0  0  0
   -6.0743   99.4474    5.9666 N   0  0  0  0  0  0  0  0  0  0  0  0
   -5.2149   98.3986    6.4781 C   0  0  2  0  0  0  0  0  0  0  0  0
   -5.7460   97.8389    7.7465 C   0  0  0  0  0  0  0  0  0  0  0  0
   -6.7211   98.4902    8.2781 O   0  0  0  0  0  0  0  0  0  0  0  0
   -3.8420   99.0585    6.7431 C   0  0  0  0  0  0  0  0  0  0  0  0
   -3.7667  100.7156    6.0497 S   0  0  0  0  0  0  0  0  0  0  0  0
   -5.3176   96.7113    8.4186 N   0  0  0  0  0  0  0  0  0  0  0  0
   -5.2146   95.3318    7.9621 C   0  0  2  0  0  0  0  0  0  0  0  0
   -3.8252   95.0148    7.5616 C   0  0  0  0  0  0  0  0  0  0  0  0
   -3.4929   95.4183    6.3898 O   0  0  0  0  0  0  0  0  0  0  0  0
   -6.2499   94.9604    6.9522 C   0  0  0  0  0  0  0  0  0  0  0  0
   -5.9959   95.3904    5.5743 C   0  0  0  0  0  0  0  0  0  0  0  0
   -5.1689   96.4596    5.3181 C   0  0  0  0  0  0  0  0  0  0  0  0
   -6.5550   94.7231    4.5190 C   0  0  0  0  0  0  0  0  0  0  0  0
   -4.9142   96.8443    4.0139 C   0  0  0  0  0  0  0  0  0  0  0  0
   -6.2956   95.1144    3.1954 C   0  0  0  0  0  0  0  0  0  0  0  0
   -5.4743   96.1750    2.9603 C   0  0  0  0  0  0  0  0  0  0  0  0
   -5.2198   96.5587    1.6402 O   0  0  0  0  0  0  0  0  0  0  0  0
   -2.8578   94.3428    8.3015 N   0  0  0  0  0  0  0  0  0  0  0  0
   -3.1136   93.3953    9.4005 C   0  0  2  0  0  0  0  0  0  0  0  0
   -1.8928   93.3000   10.2339 C   0  0  0  0  0  0  0  0  0  0  0  0
   -1.2535   92.1814   10.1228 O   0  0  0  0  0  0  0  0  0  0  0  0
   -3.4063   92.0829    8.6790 C   0  0  0  0  0  0  0  0  0  0  0  0
   -4.8517   91.7456    8.5625 C   0  0  0  0  0  0  0  0  0  0  0  0
   -5.6843   92.5736    9.5143 C   0  0  0  0  0  0  0  0  0  0  0  0
   -5.7107   91.9163   10.8562 C   0  0  0  0  0  0  0  0  0  0  0  0
   -4.3877   91.7958   11.4172 N   0  0  0  0  0  4  0  0  0  0  0  0
   -1.3372   94.2201   11.1032 N   0  0  0  0  0  0  0  0  0  0  0  0
   -1.8438   94.8132   12.3176 C   0  0  2  0  0  0  0  0  0  0  0  0
   -0.8359   94.6196   13.4215 C   0  0  0  0  0  0  0  0  0  0  0  0
   -0.0607   93.6126   13.2393 O   0  0  0  0  0  0  0  0  0  0  0  0
   -3.1917   94.2674   12.7495 C   0  0  0  0  0  0  0  0  0  0  0  0
   -3.1354   92.9259   13.0588 O   0  0  0  0  0  0  0  0  0  0  0  0
   -0.6605   95.3689   14.5572 N   0  0  0  0  0  0  0  0  0  0  0  0
   -0.5109   96.8033   14.7416 C   0  0  2  0  0  0  0  0  0  0  0  0
   -1.8550   97.2557   15.1855 C   0  0  0  0  0  0  0  0  0  0  0  0
   -2.7165   97.4018   14.2489 O   0  0  0  0  0  0  0  0  0  0  0  0
    0.0405   97.5227   13.5707 C   0  0  0  0  0  0  0  0  0  0  0  0
    0.5875   96.5203   12.5782 C   0  0  0  0  0  0  0  0  0  0  0  0
    0.0817   95.1205   12.8793 C   0  0  0  0  0  0  0  0  0  0  0  0
   -0.4178   95.0576   14.2386 N   0  0  0  0  0  0  0  0  0  0  0  0
   -1.4965   94.2133   14.6106 C   0  0  0  0  0  0  0  0  0  0  0  0
   -1.2766   93.0101   15.0144 N   0  0  0  0  0  0  0  0  0  0  0  0
   -2.8403   94.6692   14.5499 N   0  0  0  0  0  0  0  0  0  0  0  0
   -2.3060   97.5380   16.4714 N   0  0  0  0  0  0  0  0  0  0  0  0
   -1.8781   98.5934   17.3698 C   0  0  2  0  0  0  0  0  0  0  0  0
   -1.0109   99.6125   16.8445 C   0  0  0  0  0  0  0  0  0  0  0  0
    0.2376   99.4809   16.7199 O   0  0  0  0  0  0  0  0  0  0  0  0
   -1.3360   97.7516   18.5043 C   0  0  0  0  0  0  0  0  0  0  0  0
   -2.4115   96.6523   18.5579 C   0  0  0  0  0  0  0  0  0  0  0  0
   -3.3251   96.9139   17.3587 C   0  0  0  0  0  0  0  0  0  0  0  0
   -1.5362  100.8647   16.4261 N   0  0  0  0  0  0  0  0  0  0  0  0
   -2.7929  100.9777   15.6607 C   0  0  2  0  0  0  0  0  0  0  0  0
   -2.4683  101.1753   14.2437 C   0  0  0  0  0  0  0  0  0  0  0  0
   -1.2654  100.7792   13.9551 O   0  0  0  0  0  0  0  0  0  0  0  0
   -3.5224  102.0259   16.3811 C   0  0  0  0  0  0  0  0  0  0  0  0
   -2.4563  102.8220   17.1166 C   0  0  0  0  0  0  0  0  0  0  0  0
   -1.1304  102.2772   16.5543 C   0  0  0  0  0  0  0  0  0  0  0  0
   -3.1778  101.6864   13.1722 N   0  0  0  0  0  0  0  0  0  0  0  0
   -3.6154  102.9961   12.7817 C   0  0  2  0  0  0  0  0  0  0  0  0
   -3.2465  103.1570   11.3190 C   0  0  0  0  0  0  0  0  0  0  0  0
   -2.0045  102.9253   11.0993 O   0  0  0  0  0  0  0  0  0  0  0  0
   -2.9220  104.1547   13.4501 C   0  0  2  0  0  0  0  0  0  0  0  0
   -3.9957  105.2170   13.7549 C   0  0  0  0  0  0  0  0  0  0  0  0
   -1.9563  104.8812   12.5325 C   0  0  0  0  0  0  0  0  0  0  0  0
   -5.3349  104.5819   13.9615 C   0  0  0  0  0  0  0  0  0  0  0  0
   -4.0930  103.5098   10.2810 N   0  0  0  0  0  0  0  0  0  0  0  0
   -5.2950  102.8924    9.7962 C   0  0  2  0  0  0  0  0  0  0  0  0
   -6.2241  102.3908   10.8198 C   0  0  0  0  0  0  0  0  0  0  0  0
   -5.9497  101.2070   11.2545 O   0  0  0  0  0  0  0  0  0  0  0  0
   -4.8461  101.7054    8.9212 C   0  0  0  0  0  0  0  0  0  0  0  0
   -3.9038  102.2540    7.4802 S   0  0  0  0  0  0  0  0  0  0  0  0
   -7.3306  102.9981   11.3728 N   0  0  0  0  0  0  0  0  0  0  0  0
   -8.4879  103.6035   10.6544 C   0  0  2  0  0  0  0  0  0  0  0  0
   -8.3804  103.3982    9.2452 C   0  0  0  0  0  0  0  0  0  0  0  0
   -8.1813  102.0631    9.0297 O   0  0  0  0  0  0  0  0  0  0  0  0
   -8.8605  104.8046   11.3778 C   0  0  0  0  0  0  0  0  0  0  0  0
  -10.2571  105.2232   11.4738 C   0  0  0  0  0  0  0  0  0  0  0  0
  -10.7874  105.9019   12.5470 C   0  0  0  0  0  0  0  0  0  0  0  0
  -11.0986  104.9957   10.3816 C   0  0  0  0  0  0  0  0  0  0  0  0
  -12.0927  106.3317   12.5332 C   0  0  0  0  0  0  0  0  0  0  0  0
  -12.4075  105.4197   10.3543 C   0  0  0  0  0  0  0  0  0  0  0  0
  -12.9169  106.0975   11.4424 C   0  0  0  0  0  0  0  0  0  0  0  0
   -8.4082  104.0836    8.0408 N   0  0  0  0  0  0  0  0  0  0  0  0
   -9.3152  105.0702    7.5160 C   0  0  2  0  0  0  0  0  0  0  0  0
   -9.8501  104.6953    6.1498 C   0  0  0  0  0  0  0  0  0  0  0  0
   -9.7099  105.5548    5.2007 O   0  0  0  0  0  0  0  0  0  0  0  0
   -8.3008  106.2066    7.2463 C   0  0  0  0  0  0  0  0  0  0  0  0
   -7.1507  105.4029    6.6195 C   0  0  0  0  0  0  0  0  0  0  0  0
   -7.4910  103.9586    6.8669 C   0  0  0  0  0  0  0  0  0  0  0  0
  -10.4843  103.5115    5.7989 N   0  0  0  0  0  0  0  0  0  0  0  0
  -11.5921  102.8328    6.4344 C   0  0  2  0  0  0  0  0  0  0  0  0
  -12.2527  101.9426    5.3915 C   0  0  0  0  0  0  0  0  0  0  0  0
  -13.4845  102.0415    5.3132 O   0  0  0  0  0  0  0  0  0  0  0  0
  -12.6111  103.7469    7.0496 C   0  0  0  0  0  0  0  0  0  0  0  0
  -13.0831  104.8050    6.1224 C   0  0  0  0  0  0  0  0  0  0  0  0
  -14.3132  105.0804    6.1072 O   0  0  0  0  0  0  0  0  0  0  0  0
  -12.2297  105.5211    5.2535 N   0  0  0  0  0  0  0  0  0  0  0  0
  -10.4503  100.6630    3.7010 O   0  0  0  0  0  0  0  0  0  0  0  0
  -13.1627  100.1429    0.9524 H   0  0  0  0  0  0  0  0  0  0  0  0
   -1.7932   92.1824   14.6669 H   0  0  0  0  0  0  0  0  0  0  0  0
  1  2  1  0
  1108  1  0
  1114  1  0
  2  3  1  0
  2114  1  6
  3  4  2  0
  3  5  1  0
  5  6  1  0
  6  7  1  0
  6  9  1  6
  7  8  2  0
  7 16  1  0
  9 10  1  0
 10 11  1  0
 11 12  1  0
 12 13  1  0
 13 14  2  0
 13 15  1  0
 17 16  1  1
 17 18  1  0
 17 20  1  0
 18 19  2  0
 18 22  1  0
 20 21  1  0
 21 87  1  0
 22 23  1  0
 23 24  1  0
 23 26  1  6
 24 25  2  0
 24 34  1  0
 26 27  1  0
 27 28  2  0
 27 29  1  0
 28 30  1  0
 29 31  2  0
 30 32  2  0
 31 32  1  0
 32 33  1  0
 34 35  1  0
 35 36  1  0
 35 38  1  6
 36 37  2  0
 36 43  1  0
 38 39  1  0
 39 40  1  0
 40 41  1  0
 41 42  1  0
 43 44  1  0
 44 45  1  0
 44 47  1  1
 45 46  2  0
 45 49  1  0
 47 48  1  0
 49 50  1  0
 50 51  1  0
 50 53  1  6
 51 52  2  0
 51 60  1  0
 53 54  1  0
 54 55  1  0
 55 56  1  0
 56 57  1  0
 57 58  2  0
 57 59  1  0
 60 61  1  0
 60 66  1  0
 61 62  1  0
 61 64  1  1
 62 63  2  0
 62 67  1  0
 64 65  1  0
 65 66  1  0
 67 68  1  0
 67 73  1  0
 68 69  1  0
 68 71  1  1
 69 70  2  0
 69 74  1  0
 71 72  1  0
 72 73  1  0
 75 74  1  1
 75 76  1  0
 75 78  1  0
 76 77  2  0
 76 82  1  0
 78 79  1  0
 78 80  1  6
 79 81  1  0
 83 82  1  1
 83 84  1  0
 83 86  1  0
 84 85  2  0
 84 88  1  0
 86 87  1  0
 88 89  1  0
 89 90  1  0
 89 92  1  6
 90 91  2  0
 90 99  1  0
 92 93  1  0
 93 94  2  0
 93 95  1  0
 94 96  1  0
 95 97  2  0
 96 98  2  0
 97 98  1  0
 99100  1  0
 99105  1  0
100101  1  0
100103  1  6
101102  2  0
101106  1  0
103104  1  0
104105  1  0
106107  1  0
107108  1  0
107110  1  6
108109  2  0
110111  1  0
111112  2  0
111113  1  0
 14115  1  0
 58116  1  0
M  CHG  1  42   1
M  END
$$$$
