
     RDKit          3D

116123  0  0  0  0  0  0  0  0999 V2000
  -10.7450  101.9158    5.2368 N   0  0  0  0  0  0  0  0  0  0  0  0
  -10.3905  100.5895    5.1187 C   0  0  2  0  0  0  0  0  0  0  0  0
  -10.0441   99.9796    6.4277 C   0  0  0  0  0  0  0  0  0  0  0  0
  -11.0876   99.5823    7.0726 O   0  0  0  0  0  0  0  0  0  0  0  0
   -8.7650   99.8162    6.9750 N   0  0  0  0  0  0  0  0  0  0  0  0
   -7.5989   99.2130    6.3852 C   0  0  2  0  0  0  0  0  0  0  0  0
   -6.5359  100.2430    6.3903 C   0  0  0  0  0  0  0  0  0  0  0  0
   -6.4663  100.9835    5.3564 O   0  0  0  0  0  0  0  0  0  0  0  0
   -7.7864   98.6345    5.0241 C   0  0  0  0  0  0  0  0  0  0  0  0
   -7.9457   97.1342    5.0211 C   0  0  0  0  0  0  0  0  0  0  0  0
   -7.8582   96.6901    6.4706 C   0  0  0  0  0  0  0  0  0  0  0  0
   -6.5503   96.9089    7.0345 N   0  0  0  0  0  0  0  0  0  0  0  0
   -5.9058   98.1812    7.0637 C   0  0  0  0  0  0  0  0  0  0  0  0
   -6.0733   98.9400    6.0122 N   0  0  0  0  0  0  0  0  0  0  0  0
   -5.1243   98.6077    8.1668 N   0  0  0  0  0  0  0  0  0  0  0  0
   -5.6033  100.4710    7.4349 N   0  0  0  0  0  0  0  0  0  0  0  0
   -4.7973   99.4613    8.0913 C   0  0  2  0  0  0  0  0  0  0  0  0
   -5.5042   98.8874    9.2639 C   0  0  0  0  0  0  0  0  0  0  0  0
   -6.5776   99.5010    9.6230 O   0  0  0  0  0  0  0  0  0  0  0  0
   -3.5127  100.1785    8.5667 C   0  0  0  0  0  0  0  0  0  0  0  0
   -3.3918  101.8334    7.8745 S   0  0  0  0  0  0  0  0  0  0  0  0
   -5.1460   97.7821   10.0102 N   0  0  0  0  0  0  0  0  0  0  0  0
   -4.9158   96.4055    9.5931 C   0  0  2  0  0  0  0  0  0  0  0  0
   -3.4684   96.1436    9.4264 C   0  0  0  0  0  0  0  0  0  0  0  0
   -2.9670   96.5538    8.3188 O   0  0  0  0  0  0  0  0  0  0  0  0
   -5.7583   95.9862    8.4338 C   0  0  0  0  0  0  0  0  0  0  0  0
   -5.2972   96.4114    7.1092 C   0  0  0  0  0  0  0  0  0  0  0  0
   -3.9680   96.3128    6.7681 C   0  0  0  0  0  0  0  0  0  0  0  0
   -6.1811   96.8896    6.1810 C   0  0  0  0  0  0  0  0  0  0  0  0
   -3.5440   96.6929    5.5073 C   0  0  0  0  0  0  0  0  0  0  0  0
   -5.7496   97.2751    4.9014 C   0  0  0  0  0  0  0  0  0  0  0  0
   -4.4301   97.1705    4.5808 C   0  0  0  0  0  0  0  0  0  0  0  0
   -4.0075   97.5553    3.3049 O   0  0  0  0  0  0  0  0  0  0  0  0
   -2.6078   95.5160   10.3210 N   0  0  0  0  0  0  0  0  0  0  0  0
   -3.0006   94.5650   11.3757 C   0  0  2  0  0  0  0  0  0  0  0  0
   -1.9280   94.5246   12.3965 C   0  0  0  0  0  0  0  0  0  0  0  0
   -1.2354   93.4326   12.4038 O   0  0  0  0  0  0  0  0  0  0  0  0
   -3.1203   93.2377   10.6324 C   0  0  0  0  0  0  0  0  0  0  0  0
   -4.0904   92.2771   11.2261 C   0  0  0  0  0  0  0  0  0  0  0  0
   -3.4705   90.9090   11.3955 C   0  0  0  0  0  0  0  0  0  0  0  0
   -4.3163   89.8884   10.7051 C   0  0  0  0  0  0  0  0  0  0  0  0
   -3.7058   88.5823   10.7334 N   0  0  0  0  0  4  0  0  0  0  0  0
   -1.5575   95.4716   13.3330 N   0  0  0  0  0  0  0  0  0  0  0  0
   -2.2772   96.0501   14.4422 C   0  0  2  0  0  0  0  0  0  0  0  0
   -1.4546   95.9044   15.6968 C   0  0  0  0  0  0  0  0  0  0  0  0
   -0.6208   94.9291   15.6545 O   0  0  0  0  0  0  0  0  0  0  0  0
   -3.6546   95.4519   14.6571 C   0  0  0  0  0  0  0  0  0  0  0  0
   -3.6030   94.0935   14.8816 O   0  0  0  0  0  0  0  0  0  0  0  0
   -1.4953   96.6666   16.8366 N   0  0  0  0  0  0  0  0  0  0  0  0
   -1.4345   98.1069   17.0253 C   0  0  2  0  0  0  0  0  0  0  0  0
   -2.8496   98.5062   17.2406 C   0  0  0  0  0  0  0  0  0  0  0  0
   -3.5532   98.6115   16.1753 O   0  0  0  0  0  0  0  0  0  0  0  0
   -0.7297   98.8418   15.9503 C   0  0  0  0  0  0  0  0  0  0  0  0
   -0.2222  100.1597   16.4931 C   0  0  0  0  0  0  0  0  0  0  0  0
    0.7662   99.9409   17.6250 C   0  0  0  0  0  0  0  0  0  0  0  0
    1.4509   98.6761   17.4452 N   0  0  0  0  0  0  0  0  0  0  0  0
    2.3769   98.1743   18.3968 C   0  0  0  0  0  0  0  0  0  0  0  0
    2.7793   98.9143   19.3714 N   0  0  0  0  0  0  0  0  0  0  0  0
    2.8815   96.8501   18.3028 N   0  0  0  0  0  0  0  0  0  0  0  0
   -3.5138   98.7769   18.4331 N   0  0  0  0  0  0  0  0  0  0  0  0
   -3.2792   99.8540   19.3760 C   0  0  2  0  0  0  0  0  0  0  0  0
   -2.3795  100.9050   18.9854 C   0  0  0  0  0  0  0  0  0  0  0  0
   -1.1231  100.8241   19.0658 O   0  0  0  0  0  0  0  0  0  0  0  0
   -2.8951   99.0415   20.5934 C   0  0  0  0  0  0  0  0  0  0  0  0
   -3.9207   97.8994   20.4859 C   0  0  0  0  0  0  0  0  0  0  0  0
   -4.6376   98.1165   19.1516 C   0  0  0  0  0  0  0  0  0  0  0  0
   -2.8792  102.1322   18.4724 N   0  0  0  0  0  0  0  0  0  0  0  0
   -3.9989  102.1891   17.5126 C   0  0  2  0  0  0  0  0  0  0  0  0
   -3.4571  102.3919   16.1644 C   0  0  0  0  0  0  0  0  0  0  0  0
   -2.2086  102.0440   16.0788 O   0  0  0  0  0  0  0  0  0  0  0  0
   -4.8764  103.2104   18.0928 C   0  0  0  0  0  0  0  0  0  0  0  0
   -3.9759  104.0538   18.9812 C   0  0  0  0  0  0  0  0  0  0  0  0
   -2.5559  103.5608   18.6473 C   0  0  0  0  0  0  0  0  0  0  0  0
   -4.0033  102.8675   14.9861 N   0  0  0  0  0  0  0  0  0  0  0  0
   -4.4235  104.1559   14.5141 C   0  0  2  0  0  0  0  0  0  0  0  0
   -3.8292  104.3236   13.1284 C   0  0  0  0  0  0  0  0  0  0  0  0
   -2.5598  104.1419   13.1152 O   0  0  0  0  0  0  0  0  0  0  0  0
   -3.8939  105.3457   15.2716 C   0  0  2  0  0  0  0  0  0  0  0  0
   -2.3691  105.3859   15.0533 C   0  0  0  0  0  0  0  0  0  0  0  0
   -4.0321  105.2043   16.7759 C   0  0  0  0  0  0  0  0  0  0  0  0
   -1.8962  104.1557   14.3444 C   0  0  0  0  0  0  0  0  0  0  0  0
   -4.5097  104.6355   11.9630 N   0  0  0  0  0  0  0  0  0  0  0  0
   -5.5918  103.9665   11.2979 C   0  0  2  0  0  0  0  0  0  0  0  0
   -6.6538  103.4330   12.1639 C   0  0  0  0  0  0  0  0  0  0  0  0
   -6.4068  102.2639   12.6517 O   0  0  0  0  0  0  0  0  0  0  0  0
   -4.9604  102.7941   10.5215 C   0  0  0  0  0  0  0  0  0  0  0  0
   -3.8197  103.3729    9.2452 S   0  0  0  0  0  0  0  0  0  0  0  0
   -7.8585  103.9974   12.5234 N   0  0  0  0  0  0  0  0  0  0  0  0
   -8.9072  104.5507   11.6200 C   0  0  2  0  0  0  0  0  0  0  0  0
   -8.5648  104.3421   10.2494 C   0  0  0  0  0  0  0  0  0  0  0  0
   -8.2807  103.0151   10.0851 O   0  0  0  0  0  0  0  0  0  0  0  0
   -9.4394  105.7395   12.2590 C   0  0  0  0  0  0  0  0  0  0  0  0
  -10.3003  105.6409   13.4355 C   0  0  0  0  0  0  0  0  0  0  0  0
  -11.6310  105.2933   13.3911 C   0  0  0  0  0  0  0  0  0  0  0  0
   -9.7307  105.8323   14.6971 C   0  0  0  0  0  0  0  0  0  0  0  0
  -12.3590  105.1450   14.5474 C   0  0  0  0  0  0  0  0  0  0  0  0
  -10.4476  105.6879   15.8628 C   0  0  0  0  0  0  0  0  0  0  0  0
  -11.7806  105.3397   15.7930 C   0  0  0  0  0  0  0  0  0  0  0  0
   -8.4243  105.0190    9.0480 N   0  0  0  0  0  0  0  0  0  0  0  0
   -9.2727  105.9646    8.3716 C   0  0  2  0  0  0  0  0  0  0  0  0
   -9.5640  105.5603    6.9416 C   0  0  0  0  0  0  0  0  0  0  0  0
   -9.3060  106.4196    6.0172 O   0  0  0  0  0  0  0  0  0  0  0  0
   -8.2738  107.1401    8.2556 C   0  0  0  0  0  0  0  0  0  0  0  0
   -7.0065  106.3808    7.8327 C   0  0  0  0  0  0  0  0  0  0  0  0
   -7.3248  104.9252    8.0395 C   0  0  0  0  0  0  0  0  0  0  0  0
  -10.0855  104.3495    6.5072 N   0  0  0  0  0  0  0  0  0  0  0  0
  -11.2538  103.6294    6.9635 C   0  0  2  0  0  0  0  0  0  0  0  0
  -11.7010  102.7070    5.8385 C   0  0  0  0  0  0  0  0  0  0  0  0
  -12.9067  102.7548    5.5609 O   0  0  0  0  0  0  0  0  0  0  0  0
  -12.3944  104.5043    7.3947 C   0  0  0  0  0  0  0  0  0  0  0  0
  -12.9610  105.3145    6.2880 C   0  0  0  0  0  0  0  0  0  0  0  0
  -14.0447  105.9261    6.4899 O   0  0  0  0  0  0  0  0  0  0  0  0
  -12.3533  105.4378    5.0186 N   0  0  0  0  0  0  0  0  0  0  0  0
   -9.5993  101.4931    4.4773 O   0  0  0  0  0  0  0  0  0  0  0  0
   -5.9140   98.5069    5.0847 H   0  0  0  0  0  0  0  0  0  0  0  0
    3.3954   98.5787   20.1332 H   0  0  0  0  0  0  0  0  0  0  0  0
  1  2  1  0
  1108  1  0
  1114  1  0
  2  3  1  0
  2114  1  6
  3  4  2  0
  3  5  1  0
  5  6  1  0
  6  7  1  0
  6  9  1  6
  7  8  2  0
  7 16  1  0
  9 10  1  0
 10 11  1  0
 11 12  1  0
 12 13  1  0
 13 14  2  0
 13 15  1  0
 17 16  1  1
 17 18  1  0
 17 20  1  0
 18 19  2  0
 18 22  1  0
 20 21  1  0
 21 87  1  0
 22 23  1  0
 23 24  1  0
 23 26  1  6
 24 25  2  0
 24 34  1  0
 26 27  1  0
 27 28  2  0
 27 29  1  0
 28 30  1  0
 29 31  2  0
 30 32  2  0
 31 32  1  0
 32 33  1  0
 34 35  1  0
 35 36  1  0
 35 38  1  6
 36 37  2  0
 36 43  1  0
 38 39  1  0
 39 40  1  0
 40 41  1  0
 41 42  1  0
 43 44  1  0
 44 45  1  0
 44 47  1  1
 45 46  2  0
 45 49  1  0
 47 48  1  0
 49 50  1  0
 50 51  1  0
 50 53  1  6
 51 52  2  0
 51 60  1  0
 53 54  1  0
 54 55  1  0
 55 56  1  0
 56 57  1  0
 57 58  2  0
 57 59  1  0
 60 61  1  0
 60 66  1  0
 61 62  1  0
 61 64  1  1
 62 63  2  0
 62 67  1  0
 64 65  1  0
 65 66  1  0
 67 68  1  0
 67 73  1  0
 68 69  1  0
 68 71  1  1
 69 70  2  0
 69 74  1  0
 71 72  1  0
 72 73  1  0
 75 74  1  1
 75 76  1  0
 75 78  1  0
 76 77  2  0
 76 82  1  0
 78 79  1  0
 78 80  1  1
 79 81  1  0
 83 82  1  1
 83 84  1  0
 83 86  1  0
 84 85  2  0
 84 88  1  0
 86 87  1  0
 88 89  1  0
 89 90  1  0
 89 92  1  6
 90 91  2  0
 90 99  1  0
 92 93  1  0
 93 94  2  0
 93 95  1  0
 94 96  1  0
 95 97  2  0
 96 98  2  0
 97 98  1  0
 99100  1  0
 99105  1  0
100101  1  0
100103  1  6
101102  2  0
101106  1  0
103104  1  0
104105  1  0
106107  1  0
107108  1  0
107110  1  6
108109  2  0
110111  1  0
111112  2  0
111113  1  0
 14115  1  0
 58116  1  0
M  CHG  1  42   1
M  END
$$$$
