
     RDKit          3D

116123  0  0  0  0  0  0  0  0999 V2000
  -10.5411  104.1513    6.3424 N   0  0  0  0  0  0  0  0  0  0  0  0
  -10.4743  102.8199    5.9932 C   0  0  2  0  0  0  0  0  0  0  0  0
  -10.1509  101.9486    7.1515 C   0  0  0  0  0  0  0  0  0  0  0  0
  -11.1958  101.6532    7.8469 O   0  0  0  0  0  0  0  0  0  0  0  0
   -8.8905  101.4604    7.5195 N   0  0  0  0  0  0  0  0  0  0  0  0
   -7.9246  100.7551    6.7190 C   0  0  2  0  0  0  0  0  0  0  0  0
   -6.6780  101.5524    6.7521 C   0  0  0  0  0  0  0  0  0  0  0  0
   -6.5460  102.4269    5.8355 O   0  0  0  0  0  0  0  0  0  0  0  0
   -8.3385  100.4544    5.3188 C   0  0  0  0  0  0  0  0  0  0  0  0
   -7.2152  100.5691    4.3181 C   0  0  0  0  0  0  0  0  0  0  0  0
   -7.8478  100.4299    2.9446 C   0  0  0  0  0  0  0  0  0  0  0  0
   -6.9199  100.7172    1.8804 N   0  0  0  0  0  0  0  0  0  0  0  0
   -7.2528  100.6251    0.4963 C   0  0  0  0  0  0  0  0  0  0  0  0
   -7.2886   99.4212   -0.0124 N   0  0  0  0  0  0  0  0  0  0  0  0
   -7.5302  101.7699   -0.2924 N   0  0  0  0  0  0  0  0  0  0  0  0
   -5.6347  101.4263    7.7052 N   0  0  0  0  0  0  0  0  0  0  0  0
   -4.9985  100.1892    8.1116 C   0  0  2  0  0  0  0  0  0  0  0  0
   -5.7068   99.5726    9.2615 C   0  0  0  0  0  0  0  0  0  0  0  0
   -6.5995  100.3088    9.8262 O   0  0  0  0  0  0  0  0  0  0  0  0
   -3.5599  100.5647    8.5361 C   0  0  0  0  0  0  0  0  0  0  0  0
   -3.1638  102.2586    8.0823 S   0  0  0  0  0  0  0  0  0  0  0  0
   -5.5194   98.3122    9.7934 N   0  0  0  0  0  0  0  0  0  0  0  0
   -5.6091   97.0048    9.1574 C   0  0  2  0  0  0  0  0  0  0  0  0
   -4.2641   96.5074    8.7901 C   0  0  0  0  0  0  0  0  0  0  0  0
   -3.7841   96.9933    7.7038 O   0  0  0  0  0  0  0  0  0  0  0  0
   -6.6130   96.9478    8.0535 C   0  0  0  0  0  0  0  0  0  0  0  0
   -7.0416   98.2351    7.4991 C   0  0  0  0  0  0  0  0  0  0  0  0
   -7.6150   98.3009    6.2503 C   0  0  0  0  0  0  0  0  0  0  0  0
   -6.9027   99.3886    8.2212 C   0  0  0  0  0  0  0  0  0  0  0  0
   -8.0397   99.5162    5.7438 C   0  0  0  0  0  0  0  0  0  0  0  0
   -7.3344  100.6218    7.7061 C   0  0  0  0  0  0  0  0  0  0  0  0
   -7.9000  100.6683    6.4682 C   0  0  0  0  0  0  0  0  0  0  0  0
   -8.3282  101.8992    5.9618 O   0  0  0  0  0  0  0  0  0  0  0  0
   -3.4772   95.5910    9.4798 N   0  0  0  0  0  0  0  0  0  0  0  0
   -3.9654   94.5698   10.4231 C   0  0  2  0  0  0  0  0  0  0  0  0
   -2.8420   94.1614   11.2979 C   0  0  0  0  0  0  0  0  0  0  0  0
   -2.3873   92.9730   11.0674 O   0  0  0  0  0  0  0  0  0  0  0  0
   -4.4137   93.4294    9.5136 C   0  0  0  0  0  0  0  0  0  0  0  0
   -4.7508   92.1641   10.2219 C   0  0  0  0  0  0  0  0  0  0  0  0
   -3.5113   91.5046   10.7817 C   0  0  0  0  0  0  0  0  0  0  0  0
   -3.3991   90.1145   10.2444 C   0  0  0  0  0  0  0  0  0  0  0  0
   -2.0578   89.6004   10.3711 N   0  0  0  0  0  4  0  0  0  0  0  0
   -2.2101   94.8546   12.3134 N   0  0  0  0  0  0  0  0  0  0  0  0
   -2.7023   95.3668   13.5698 C   0  0  2  0  0  0  0  0  0  0  0  0
   -1.8246   94.8647   14.6876 C   0  0  0  0  0  0  0  0  0  0  0  0
   -1.2127   93.7710   14.4091 O   0  0  0  0  0  0  0  0  0  0  0  0
   -4.1496   95.0102   13.8516 C   0  0  0  0  0  0  0  0  0  0  0  0
   -4.2647   93.9812   14.7605 O   0  0  0  0  0  0  0  0  0  0  0  0
   -1.6144   95.4225   15.9231 N   0  0  0  0  0  0  0  0  0  0  0  0
   -1.2470   96.7747   16.3107 C   0  0  2  0  0  0  0  0  0  0  0  0
   -2.5286   97.3911   16.7420 C   0  0  0  0  0  0  0  0  0  0  0  0
   -3.2825   97.8005   15.7908 O   0  0  0  0  0  0  0  0  0  0  0  0
   -0.4999   97.5315   15.2804 C   0  0  0  0  0  0  0  0  0  0  0  0
    0.9668   97.1676   15.3557 C   0  0  0  0  0  0  0  0  0  0  0  0
    1.1491   95.6972   15.6888 C   0  0  0  0  0  0  0  0  0  0  0  0
    0.1683   95.2889   16.6748 N   0  0  0  0  0  0  0  0  0  0  0  0
    0.0334   93.9398   17.0950 C   0  0  0  0  0  0  0  0  0  0  0  0
   -1.0607   93.2943   16.8818 N   0  0  0  0  0  0  0  0  0  0  0  0
    1.0949   93.2674   17.7570 N   0  0  0  0  0  0  0  0  0  0  0  0
   -3.0220   97.5811   18.0293 N   0  0  0  0  0  0  0  0  0  0  0  0
   -2.4958   98.4247   19.0855 C   0  0  2  0  0  0  0  0  0  0  0  0
   -1.4373   99.3382   18.7513 C   0  0  0  0  0  0  0  0  0  0  0  0
   -0.2213   99.0111   18.6751 O   0  0  0  0  0  0  0  0  0  0  0  0
   -2.1844   97.3653   20.1200 C   0  0  0  0  0  0  0  0  0  0  0  0
   -3.4259   96.4691   19.9657 C   0  0  0  0  0  0  0  0  0  0  0  0
   -4.1926   97.0337   18.7679 C   0  0  0  0  0  0  0  0  0  0  0  0
   -1.7186  100.7048   18.4825 N   0  0  0  0  0  0  0  0  0  0  0  0
   -2.8795  101.1280   17.6755 C   0  0  2  0  0  0  0  0  0  0  0  0
   -2.4223  101.4451   16.3180 C   0  0  0  0  0  0  0  0  0  0  0  0
   -1.2819  100.8883   16.0407 O   0  0  0  0  0  0  0  0  0  0  0  0
   -3.4798  102.1857   18.4942 C   0  0  0  0  0  0  0  0  0  0  0  0
   -2.3559  102.6872   19.3869 C   0  0  0  0  0  0  0  0  0  0  0  0
   -1.0985  101.9988   18.8248 C   0  0  0  0  0  0  0  0  0  0  0  0
   -2.9570  102.2022   15.2915 N   0  0  0  0  0  0  0  0  0  0  0  0
   -3.1447  103.6063   15.0627 C   0  0  2  0  0  0  0  0  0  0  0  0
   -2.6465  103.8858   13.6573 C   0  0  0  0  0  0  0  0  0  0  0  0
   -1.4460  103.4742   13.4729 O   0  0  0  0  0  0  0  0  0  0  0  0
   -2.3233  104.5344   15.9194 C   0  0  2  0  0  0  0  0  0  0  0  0
   -1.0326  104.8542   15.1408 C   0  0  0  0  0  0  0  0  0  0  0  0
   -1.8162  103.8798   17.1908 C   0  0  0  0  0  0  0  0  0  0  0  0
   -0.3701  103.6004   14.6627 C   0  0  0  0  0  0  0  0  0  0  0  0
   -3.3444  104.5075   12.6351 N   0  0  0  0  0  0  0  0  0  0  0  0
   -4.5914  104.1721   12.0080 C   0  0  2  0  0  0  0  0  0  0  0  0
   -5.6636  103.7117   12.9029 C   0  0  0  0  0  0  0  0  0  0  0  0
   -5.6192  102.4530   13.1843 O   0  0  0  0  0  0  0  0  0  0  0  0
   -4.2782  103.0465   11.0025 C   0  0  0  0  0  0  0  0  0  0  0  0
   -3.1543  103.6036    9.7019 S   0  0  0  0  0  0  0  0  0  0  0  0
   -6.6943  104.4248   13.4759 N   0  0  0  0  0  0  0  0  0  0  0  0
   -7.6805  105.3060   12.7883 C   0  0  2  0  0  0  0  0  0  0  0  0
   -7.5032  105.2658   11.3717 C   0  0  0  0  0  0  0  0  0  0  0  0
   -7.5091  103.9547   10.9852 O   0  0  0  0  0  0  0  0  0  0  0  0
   -7.9050  106.4516   13.6496 C   0  0  0  0  0  0  0  0  0  0  0  0
   -7.5787  107.8043   13.2040 C   0  0  0  0  0  0  0  0  0  0  0  0
   -8.4513  108.8669   13.2601 C   0  0  0  0  0  0  0  0  0  0  0  0
   -6.2785  108.0667   12.7644 C   0  0  0  0  0  0  0  0  0  0  0  0
   -8.0482  110.1291   12.8948 C   0  0  0  0  0  0  0  0  0  0  0  0
   -5.8615  109.3250   12.3949 C   0  0  0  0  0  0  0  0  0  0  0  0
   -6.7545  110.3744   12.4589 C   0  0  0  0  0  0  0  0  0  0  0  0
   -7.3290  106.0930   10.2733 N   0  0  0  0  0  0  0  0  0  0  0  0
   -8.0212  107.2792    9.8428 C   0  0  2  0  0  0  0  0  0  0  0  0
   -8.5068  107.1780    8.4120 C   0  0  0  0  0  0  0  0  0  0  0  0
   -8.1578  108.1141    7.5988 O   0  0  0  0  0  0  0  0  0  0  0  0
   -6.8177  108.2494    9.7853 C   0  0  0  0  0  0  0  0  0  0  0  0
   -5.7707  107.3464    9.1146 C   0  0  0  0  0  0  0  0  0  0  0  0
   -6.3595  105.9624    9.1429 C   0  0  0  0  0  0  0  0  0  0  0  0
   -9.2976  106.1749    7.8689 N   0  0  0  0  0  0  0  0  0  0  0  0
  -10.5455  105.6213    8.3463 C   0  0  2  0  0  0  0  0  0  0  0  0
  -11.2629  104.9973    7.1579 C   0  0  0  0  0  0  0  0  0  0  0  0
  -12.4527  105.3153    7.0298 O   0  0  0  0  0  0  0  0  0  0  0  0
  -11.4447  106.6112    9.0276 C   0  0  0  0  0  0  0  0  0  0  0  0
  -12.7930  106.0678    9.3260 C   0  0  0  0  0  0  0  0  0  0  0  0
  -12.8771  105.0568   10.0743 O   0  0  0  0  0  0  0  0  0  0  0  0
  -13.9892  106.6203    8.8165 N   0  0  0  0  0  0  0  0  0  0  0  0
   -9.5726  103.6524    5.4036 O   0  0  0  0  0  0  0  0  0  0  0  0
   -7.6380   99.3268   -0.9831 H   0  0  0  0  0  0  0  0  0  0  0  0
   -1.5418   93.2633   15.9651 H   0  0  0  0  0  0  0  0  0  0  0  0
  1  2  1  0
  1108  1  0
  1114  1  0
  2  3  1  0
  2114  1  6
  3  4  2  0
  3  5  1  0
  5  6  1  0
  6  7  1  0
  6  9  1  6
  7  8  2  0
  7 16  1  0
  9 10  1  0
 10 11  1  0
 11 12  1  0
 12 13  1  0
 13 14  2  0
 13 15  1  0
 17 16  1  1
 17 18  1  0
 17 20  1  0
 18 19  2  0
 18 22  1  0
 20 21  1  0
 21 87  1  0
 22 23  1  0
 23 24  1  0
 23 26  1  6
 24 25  2  0
 24 34  1  0
 26 27  1  0
 27 28  2  0
 27 29  1  0
 28 30  1  0
 29 31  2  0
 30 32  2  0
 31 32  1  0
 32 33  1  0
 34 35  1  0
 35 36  1  0
 35 38  1  6
 36 37  2  0
 36 43  1  0
 38 39  1  0
 39 40  1  0
 40 41  1  0
 41 42  1  0
 43 44  1  0
 44 45  1  0
 44 47  1  1
 45 46  2  0
 45 49  1  0
 47 48  1  0
 49 50  1  0
 50 51  1  0
 50 53  1  6
 51 52  2  0
 51 60  1  0
 53 54  1  0
 54 55  1  0
 55 56  1  0
 56 57  1  0
 57 58  2  0
 57 59  1  0
 60 61  1  0
 60 66  1  0
 61 62  1  0
 61 64  1  1
 62 63  2  0
 62 67  1  0
 64 65  1  0
 65 66  1  0
 67 68  1  0
 67 73  1  0
 68 69  1  0
 68 71  1  1
 69 70  2  0
 69 74  1  0
 71 72  1  0
 72 73  1  0
 75 74  1  1
 75 76  1  0
 75 78  1  0
 76 77  2  0
 76 82  1  0
 78 79  1  0
 78 80  1  1
 79 81  1  0
 83 82  1  1
 83 84  1  0
 83 86  1  0
 84 85  2  0
 84 88  1  0
 86 87  1  0
 88 89  1  0
 89 90  1  0
 89 92  1  1
 90 91  2  0
 90 99  1  0
 92 93  1  0
 93 94  2  0
 93 95  1  0
 94 96  1  0
 95 97  2  0
 96 98  2  0
 97 98  1  0
 99100  1  0
 99105  1  0
100101  1  0
100103  1  6
101102  2  0
101106  1  0
103104  1  0
104105  1  0
106107  1  0
107108  1  0
107110  1  6
108109  2  0
110111  1  0
111112  2  0
111113  1  0
 14115  1  0
 58116  1  0
M  CHG  1  42   1
M  END
$$$$
