
     RDKit          3D

116123  0  0  0  0  0  0  0  0999 V2000
   -5.2784  108.1933   14.5283 N   0  0  0  0  0  0  0  0  0  0  0  0
   -4.2553  107.5148   15.1545 C   0  0  2  0  0  0  0  0  0  0  0  0
   -3.7404  106.3889   14.3343 C   0  0  0  0  0  0  0  0  0  0  0  0
   -2.8717  106.7764   13.4638 O   0  0  0  0  0  0  0  0  0  0  0  0
   -4.1007  105.0384   14.4269 N   0  0  0  0  0  0  0  0  0  0  0  0
   -4.1215  104.1851   15.5857 C   0  0  2  0  0  0  0  0  0  0  0  0
   -5.5062  103.6793   15.7193 C   0  0  0  0  0  0  0  0  0  0  0  0
   -6.2941  104.3811   16.4327 O   0  0  0  0  0  0  0  0  0  0  0  0
   -3.6459  104.8043   16.8555 C   0  0  0  0  0  0  0  0  0  0  0  0
   -2.2077  104.4862   17.1822 C   0  0  0  0  0  0  0  0  0  0  0  0
   -1.7774  103.3994   16.2129 C   0  0  0  0  0  0  0  0  0  0  0  0
   -1.7919  102.0898   16.8138 N   0  0  0  0  0  0  0  0  0  0  0  0
   -0.6254  101.4366   17.3114 C   0  0  0  0  0  0  0  0  0  0  0  0
   -0.5542  101.2858   18.6082 N   0  0  0  0  0  0  0  0  0  0  0  0
    0.4053  100.9736   16.4552 N   0  0  0  0  0  0  0  0  0  0  0  0
   -6.0210  102.4971   15.1274 N   0  0  0  0  0  0  0  0  0  0  0  0
   -5.4074  101.1851   15.1748 C   0  0  2  0  0  0  0  0  0  0  0  0
   -4.4788  100.9841   14.0341 C   0  0  0  0  0  0  0  0  0  0  0  0
   -4.5287  101.8795   13.1102 O   0  0  0  0  0  0  0  0  0  0  0  0
   -6.5655  100.1650   15.0802 C   0  0  0  0  0  0  0  0  0  0  0  0
   -8.1635  100.9697   15.2565 S   0  0  0  0  0  0  0  0  0  0  0  0
   -3.5766   99.9553   13.8486 N   0  0  0  0  0  0  0  0  0  0  0  0
   -2.4817   99.5059   14.6979 C   0  0  2  0  0  0  0  0  0  0  0  0
   -2.8921   98.3358   15.5065 C   0  0  0  0  0  0  0  0  0  0  0  0
   -3.5787   98.6144   16.5541 O   0  0  0  0  0  0  0  0  0  0  0  0
   -1.8452  100.6067   15.4805 C   0  0  0  0  0  0  0  0  0  0  0  0
   -2.5323  101.0091   16.7111 C   0  0  0  0  0  0  0  0  0  0  0  0
   -2.4471  102.3046   17.1662 C   0  0  0  0  0  0  0  0  0  0  0  0
   -3.2894  100.1129   17.4146 C   0  0  0  0  0  0  0  0  0  0  0  0
   -3.1184  102.6832   18.3150 C   0  0  0  0  0  0  0  0  0  0  0  0
   -3.9706  100.4983   18.5806 C   0  0  0  0  0  0  0  0  0  0  0  0
   -3.8752  101.7849   19.0165 C   0  0  0  0  0  0  0  0  0  0  0  0
   -4.5566  102.1621   20.1777 O   0  0  0  0  0  0  0  0  0  0  0  0
   -2.6228   96.9936   15.2602 N   0  0  0  0  0  0  0  0  0  0  0  0
   -1.5039   96.4695   14.4574 C   0  0  2  0  0  0  0  0  0  0  0  0
   -1.8413   95.0952   14.0200 C   0  0  0  0  0  0  0  0  0  0  0  0
   -1.1639   94.1637   14.6079 O   0  0  0  0  0  0  0  0  0  0  0  0
   -0.3306   96.4774   15.4332 C   0  0  0  0  0  0  0  0  0  0  0  0
    0.7885   97.3829   15.0536 C   0  0  0  0  0  0  0  0  0  0  0  0
    0.6913   97.7926   13.6019 C   0  0  0  0  0  0  0  0  0  0  0  0
   -0.6208   98.4658   13.3596 C   0  0  0  0  0  0  0  0  0  0  0  0
   -0.7365   98.9354   12.0011 N   0  0  0  0  0  4  0  0  0  0  0  0
   -2.7654   94.6619   13.0875 N   0  0  0  0  0  0  0  0  0  0  0  0
   -2.8693   94.8945   11.6669 C   0  0  2  0  0  0  0  0  0  0  0  0
   -2.9822   93.5706   10.9551 C   0  0  0  0  0  0  0  0  0  0  0  0
   -2.4753   92.5898   11.6100 O   0  0  0  0  0  0  0  0  0  0  0  0
   -1.7145   95.6920   11.0910 C   0  0  0  0  0  0  0  0  0  0  0  0
   -1.6995   95.6658    9.7135 O   0  0  0  0  0  0  0  0  0  0  0  0
   -3.5433   93.3054    9.7317 N   0  0  0  0  0  0  0  0  0  0  0  0
   -4.8427   93.6544    9.1808 C   0  0  2  0  0  0  0  0  0  0  0  0
   -4.5650   94.8216    8.3039 C   0  0  0  0  0  0  0  0  0  0  0  0
   -4.4503   95.9434    8.9115 O   0  0  0  0  0  0  0  0  0  0  0  0
   -5.9057   93.8642   10.1900 C   0  0  0  0  0  0  0  0  0  0  0  0
   -5.2955   94.4410   11.4487 C   0  0  0  0  0  0  0  0  0  0  0  0
   -3.7968   94.6300   11.2930 C   0  0  0  0  0  0  0  0  0  0  0  0
   -3.3611   94.0942   10.0186 N   0  0  0  0  0  0  0  0  0  0  0  0
   -2.1944   93.2957    9.8919 C   0  0  0  0  0  0  0  0  0  0  0  0
   -1.1940   93.7056    9.1917 N   0  0  0  0  0  0  0  0  0  0  0  0
   -2.0974   92.0311   10.5308 N   0  0  0  0  0  0  0  0  0  0  0  0
   -4.4098   94.8640    6.9216 N   0  0  0  0  0  0  0  0  0  0  0  0
   -5.3906   94.5810    5.8910 C   0  0  2  0  0  0  0  0  0  0  0  0
   -6.7591   94.4072    6.2955 C   0  0  0  0  0  0  0  0  0  0  0  0
   -7.2260   93.3313    6.7602 O   0  0  0  0  0  0  0  0  0  0  0  0
   -4.7190   93.4007    5.2237 C   0  0  0  0  0  0  0  0  0  0  0  0
   -3.2594   93.8883    5.2262 C   0  0  0  0  0  0  0  0  0  0  0  0
   -3.2636   95.1904    6.0298 C   0  0  0  0  0  0  0  0  0  0  0  0
   -7.6877   95.4771    6.1861 N   0  0  0  0  0  0  0  0  0  0  0  0
   -7.3391   96.8651    6.5467 C   0  0  2  0  0  0  0  0  0  0  0  0
   -7.8794   97.1583    7.8788 C   0  0  0  0  0  0  0  0  0  0  0  0
   -8.1188   96.0790    8.5607 O   0  0  0  0  0  0  0  0  0  0  0  0
   -7.8192   97.6337    5.3941 C   0  0  0  0  0  0  0  0  0  0  0  0
   -8.8854   96.7631    4.7487 C   0  0  0  0  0  0  0  0  0  0  0  0
   -9.0921   95.6182    5.7574 C   0  0  0  0  0  0  0  0  0  0  0  0
   -8.1752   98.3350    8.5425 N   0  0  0  0  0  0  0  0  0  0  0  0
   -9.1894   99.3418    8.4125 C   0  0  2  0  0  0  0  0  0  0  0  0
   -9.7246   99.5992    9.8085 C   0  0  0  0  0  0  0  0  0  0  0  0
  -10.1154   98.5243   10.3885 O   0  0  0  0  0  0  0  0  0  0  0  0
  -10.4166   98.9510    7.6306 C   0  0  2  0  0  0  0  0  0  0  0  0
  -11.3969   98.2886    8.6178 C   0  0  0  0  0  0  0  0  0  0  0  0
  -10.1509   97.8597    6.6104 C   0  0  0  0  0  0  0  0  0  0  0  0
  -10.8422   97.0014    9.1421 C   0  0  0  0  0  0  0  0  0  0  0  0
   -9.8142  100.8218   10.4533 N   0  0  0  0  0  0  0  0  0  0  0  0
   -8.8048  101.7884   10.7812 C   0  0  2  0  0  0  0  0  0  0  0  0
   -7.7858  102.0363    9.7503 C   0  0  0  0  0  0  0  0  0  0  0  0
   -6.8016  101.2015    9.7621 O   0  0  0  0  0  0  0  0  0  0  0  0
   -8.1002  101.2620   12.0470 C   0  0  0  0  0  0  0  0  0  0  0  0
   -9.2313  101.1670   13.4529 S   0  0  0  0  0  0  0  0  0  0  0  0
   -7.7344  103.0201    8.7867 N   0  0  0  0  0  0  0  0  0  0  0  0
   -7.8560  104.4925    8.9853 C   0  0  2  0  0  0  0  0  0  0  0  0
   -7.9432  104.8168   10.3734 C   0  0  0  0  0  0  0  0  0  0  0  0
   -6.8932  104.2172   11.0110 O   0  0  0  0  0  0  0  0  0  0  0  0
   -8.6311  105.0120    7.8744 C   0  0  0  0  0  0  0  0  0  0  0  0
   -8.0595  105.9866    6.9478 C   0  0  0  0  0  0  0  0  0  0  0  0
   -8.5748  107.2448    6.7363 C   0  0  0  0  0  0  0  0  0  0  0  0
   -6.8712  105.6626    6.2878 C   0  0  0  0  0  0  0  0  0  0  0  0
   -7.9379  108.1363    5.9065 C   0  0  0  0  0  0  0  0  0  0  0  0
   -6.2232  106.5448    5.4537 C   0  0  0  0  0  0  0  0  0  0  0  0
   -6.7595  107.8003    5.2566 C   0  0  0  0  0  0  0  0  0  0  0  0
   -8.7202  105.5218   11.2791 N   0  0  0  0  0  0  0  0  0  0  0  0
   -9.2598  106.8558   11.2501 C   0  0  2  0  0  0  0  0  0  0  0  0
   -8.9013  107.6514   12.4877 C   0  0  0  0  0  0  0  0  0  0  0  0
   -9.8675  108.1887   13.1489 O   0  0  0  0  0  0  0  0  0  0  0  0
  -10.7580  106.5103   11.4210 C   0  0  0  0  0  0  0  0  0  0  0  0
  -10.6678  105.4409   12.5209 C   0  0  0  0  0  0  0  0  0  0  0  0
   -9.2066  105.1000   12.6283 C   0  0  0  0  0  0  0  0  0  0  0  0
   -7.6294  107.8706   12.9986 N   0  0  0  0  0  0  0  0  0  0  0  0
   -6.4345  108.3407   12.3332 C   0  0  2  0  0  0  0  0  0  0  0  0
   -5.5162  108.9360   13.3910 C   0  0  0  0  0  0  0  0  0  0  0  0
   -5.0597  110.0564   13.1274 O   0  0  0  0  0  0  0  0  0  0  0  0
   -6.6825  109.3437   11.2446 C   0  0  0  0  0  0  0  0  0  0  0  0
   -5.4368  109.8233   10.5964 C   0  0  0  0  0  0  0  0  0  0  0  0
   -4.6528  110.5449   11.2700 O   0  0  0  0  0  0  0  0  0  0  0  0
   -5.0805  109.5169    9.2640 N   0  0  0  0  0  0  0  0  0  0  0  0
   -5.4675  107.5006   15.7744 O   0  0  0  0  0  0  0  0  0  0  0  0
    0.0416  100.5167   18.9642 H   0  0  0  0  0  0  0  0  0  0  0  0
   -0.2366   93.3192    9.2738 H   0  0  0  0  0  0  0  0  0  0  0  0
  1  2  1  0
  1108  1  0
  1114  1  0
  2  3  1  0
  2114  1  1
  3  4  2  0
  3  5  1  0
  5  6  1  0
  6  7  1  0
  6  9  1  1
  7  8  2  0
  7 16  1  0
  9 10  1  0
 10 11  1  0
 11 12  1  0
 12 13  1  0
 13 14  2  0
 13 15  1  0
 17 16  1  6
 17 18  1  0
 17 20  1  0
 18 19  2  0
 18 22  1  0
 20 21  1  0
 21 87  1  0
 22 23  1  0
 23 24  1  0
 23 26  1  1
 24 25  2  0
 24 34  1  0
 26 27  1  0
 27 28  2  0
 27 29  1  0
 28 30  1  0
 29 31  2  0
 30 32  2  0
 31 32  1  0
 32 33  1  0
 34 35  1  0
 35 36  1  0
 35 38  1  1
 36 37  2  0
 36 43  1  0
 38 39  1  0
 39 40  1  0
 40 41  1  0
 41 42  1  0
 43 44  1  0
 44 45  1  0
 44 47  1  6
 45 46  2  0
 45 49  1  0
 47 48  1  0
 49 50  1  0
 50 51  1  0
 50 53  1  1
 51 52  2  0
 51 60  1  0
 53 54  1  0
 54 55  1  0
 55 56  1  0
 56 57  1  0
 57 58  2  0
 57 59  1  0
 60 61  1  0
 60 66  1  0
 61 62  1  0
 61 64  1  1
 62 63  2  0
 62 67  1  0
 64 65  1  0
 65 66  1  0
 67 68  1  0
 67 73  1  0
 68 69  1  0
 68 71  1  6
 69 70  2  0
 69 74  1  0
 71 72  1  0
 72 73  1  0
 75 74  1  1
 75 76  1  0
 75 78  1  0
 76 77  2  0
 76 82  1  0
 78 79  1  0
 78 80  1  6
 79 81  1  0
 83 82  1  6
 83 84  1  0
 83 86  1  0
 84 85  2  0
 84 88  1  0
 86 87  1  0
 88 89  1  0
 89 90  1  0
 89 92  1  6
 90 91  2  0
 90 99  1  0
 92 93  1  0
 93 94  2  0
 93 95  1  0
 94 96  1  0
 95 97  2  0
 96 98  2  0
 97 98  1  0
 99100  1  0
 99105  1  0
100101  1  0
100103  1  1
101102  2  0
101106  1  0
103104  1  0
104105  1  0
106107  1  0
107108  1  0
107110  1  6
108109  2  0
110111  1  0
111112  2  0
111113  1  0
 14115  1  0
 58116  1  0
M  CHG  1  42   1
M  END
$$$$
