
     RDKit          3D

116123  0  0  0  0  0  0  0  0999 V2000
   -6.0395   95.2308    7.6541 N   0  0  0  0  0  0  0  0  0  0  0  0
   -6.1454   94.7077    8.9246 C   0  0  2  0  0  0  0  0  0  0  0  0
   -6.5386   95.7321    9.9253 C   0  0  0  0  0  0  0  0  0  0  0  0
   -7.8142   95.9174    9.9588 O   0  0  0  0  0  0  0  0  0  0  0  0
   -5.6920   96.4592   10.7720 N   0  0  0  0  0  0  0  0  0  0  0  0
   -4.6746   95.9747   11.6673 C   0  0  2  0  0  0  0  0  0  0  0  0
   -3.4045   96.6151   11.2578 C   0  0  0  0  0  0  0  0  0  0  0  0
   -2.7086   95.9835   10.3981 O   0  0  0  0  0  0  0  0  0  0  0  0
   -4.5332   94.4929   11.7471 C   0  0  0  0  0  0  0  0  0  0  0  0
   -5.3360   93.7517   10.7068 C   0  0  0  0  0  0  0  0  0  0  0  0
   -4.5667   92.4796   10.3966 C   0  0  0  0  0  0  0  0  0  0  0  0
   -4.7472   91.4679   11.4066 N   0  0  0  0  0  0  0  0  0  0  0  0
   -4.0815   90.2064   11.3882 C   0  0  0  0  0  0  0  0  0  0  0  0
   -2.8190   90.2122   11.7281 N   0  0  0  0  0  0  0  0  0  0  0  0
   -4.7436   89.0074   11.0224 N   0  0  0  0  0  0  0  0  0  0  0  0
   -2.9060   97.8548   11.7348 N   0  0  0  0  0  0  0  0  0  0  0  0
   -2.7989   98.2506   13.1248 C   0  0  2  0  0  0  0  0  0  0  0  0
   -4.0391   98.9209   13.5903 C   0  0  0  0  0  0  0  0  0  0  0  0
   -4.8878   99.2239   12.6706 O   0  0  0  0  0  0  0  0  0  0  0  0
   -1.6184   99.2463   13.1987 C   0  0  0  0  0  0  0  0  0  0  0  0
   -0.6902   99.2775   11.6593 S   0  0  0  0  0  0  0  0  0  0  0  0
   -4.3848   99.2568   14.8843 N   0  0  0  0  0  0  0  0  0  0  0  0
   -4.5051   98.4178   16.0690 C   0  0  2  0  0  0  0  0  0  0  0  0
   -3.2835   98.5069   16.9003 C   0  0  0  0  0  0  0  0  0  0  0  0
   -2.3010   97.7852   16.4998 O   0  0  0  0  0  0  0  0  0  0  0  0
   -4.9492   97.0242   15.7685 C   0  0  0  0  0  0  0  0  0  0  0  0
   -6.2704   96.8834   15.1499 C   0  0  0  0  0  0  0  0  0  0  0  0
   -7.1406   97.9484   15.1125 C   0  0  0  0  0  0  0  0  0  0  0  0
   -6.6524   95.7011   14.5775 C   0  0  0  0  0  0  0  0  0  0  0  0
   -8.3763   97.8153   14.5050 C   0  0  0  0  0  0  0  0  0  0  0  0
   -7.9070   95.5670   13.9609 C   0  0  0  0  0  0  0  0  0  0  0  0
   -8.7557   96.6318   13.9331 C   0  0  0  0  0  0  0  0  0  0  0  0
  -10.0029   96.4916   13.3169 O   0  0  0  0  0  0  0  0  0  0  0  0
   -3.0859   99.2728   18.0444 N   0  0  0  0  0  0  0  0  0  0  0  0
   -4.1408   99.7685   18.9458 C   0  0  2  0  0  0  0  0  0  0  0  0
   -3.6049  100.9184   19.7105 C   0  0  0  0  0  0  0  0  0  0  0  0
   -3.3846  100.6748   20.9612 O   0  0  0  0  0  0  0  0  0  0  0  0
   -4.4261   98.5741   19.8516 C   0  0  0  0  0  0  0  0  0  0  0  0
   -3.6490   97.3466   19.5263 C   0  0  0  0  0  0  0  0  0  0  0  0
   -2.2090   97.6797   19.2097 C   0  0  0  0  0  0  0  0  0  0  0  0
   -1.4111   97.6984   20.4733 C   0  0  0  0  0  0  0  0  0  0  0  0
   -1.2369   96.3728   21.0137 N   0  0  0  0  0  4  0  0  0  0  0  0
   -3.3049  102.2011   19.2913 N   0  0  0  0  0  0  0  0  0  0  0  0
   -4.1370  103.2458   18.7441 C   0  0  2  0  0  0  0  0  0  0  0  0
   -3.9393  104.5073   19.5452 C   0  0  0  0  0  0  0  0  0  0  0  0
   -3.5387  104.2961   20.7464 O   0  0  0  0  0  0  0  0  0  0  0  0
   -5.6113  102.8922   18.6958 C   0  0  0  0  0  0  0  0  0  0  0  0
   -6.3457  103.5930   19.6274 O   0  0  0  0  0  0  0  0  0  0  0  0
   -4.1330  105.8069   19.1510 N   0  0  0  0  0  0  0  0  0  0  0  0
   -3.6552  106.5330   17.9855 C   0  0  2  0  0  0  0  0  0  0  0  0
   -4.8197  106.5467   17.0623 C   0  0  0  0  0  0  0  0  0  0  0  0
   -4.9982  105.4676   16.3958 O   0  0  0  0  0  0  0  0  0  0  0  0
   -2.3975  106.0103   17.4046 C   0  0  0  0  0  0  0  0  0  0  0  0
   -1.4297  107.1538   17.1928 C   0  0  0  0  0  0  0  0  0  0  0  0
   -2.0970  108.4917   17.4590 C   0  0  0  0  0  0  0  0  0  0  0  0
   -3.3567  108.2872   18.1463 N   0  0  0  0  0  0  0  0  0  0  0  0
   -3.5073  108.5241   19.5377 C   0  0  0  0  0  0  0  0  0  0  0  0
   -2.4758  108.5809   20.3071 N   0  0  0  0  0  0  0  0  0  0  0  0
   -4.7913  108.7054   20.1169 N   0  0  0  0  0  0  0  0  0  0  0  0
   -5.7401  107.5632   16.8252 N   0  0  0  0  0  0  0  0  0  0  0  0
   -5.5153  108.8690   16.2350 C   0  0  2  0  0  0  0  0  0  0  0  0
   -4.2331  109.1245   15.6372 C   0  0  0  0  0  0  0  0  0  0  0  0
   -3.2054  109.4588   16.2882 O   0  0  0  0  0  0  0  0  0  0  0  0
   -5.9117  109.7437   17.4043 C   0  0  0  0  0  0  0  0  0  0  0  0
   -7.1502  108.9780   17.9020 C   0  0  0  0  0  0  0  0  0  0  0  0
   -7.2027  107.6966   17.0673 C   0  0  0  0  0  0  0  0  0  0  0  0
   -4.0538  109.0106   14.2323 N   0  0  0  0  0  0  0  0  0  0  0  0
   -4.6472  107.9107   13.4473 C   0  0  2  0  0  0  0  0  0  0  0  0
   -3.6124  106.9047   13.1841 C   0  0  0  0  0  0  0  0  0  0  0  0
   -2.6220  106.9878   14.0205 O   0  0  0  0  0  0  0  0  0  0  0  0
   -5.2682  108.6113   12.3189 C   0  0  0  0  0  0  0  0  0  0  0  0
   -4.5284  109.9353   12.2139 C   0  0  0  0  0  0  0  0  0  0  0  0
   -3.3483  109.7810   13.1908 C   0  0  0  0  0  0  0  0  0  0  0  0
   -3.4861  105.9004   12.2417 N   0  0  0  0  0  0  0  0  0  0  0  0
   -3.2322  105.8648   10.8298 C   0  0  2  0  0  0  0  0  0  0  0  0
   -2.1502  104.8242   10.6111 C   0  0  0  0  0  0  0  0  0  0  0  0
   -1.1115  105.0396   11.3316 O   0  0  0  0  0  0  0  0  0  0  0  0
   -2.6455  107.1156   10.2289 C   0  0  2  0  0  0  0  0  0  0  0  0
   -3.0010  108.2849   11.1675 C   0  0  0  0  0  0  0  0  0  0  0  0
   -3.2951  107.5071    8.9148 C   0  0  0  0  0  0  0  0  0  0  0  0
   -3.8001  107.8079   12.3394 C   0  0  0  0  0  0  0  0  0  0  0  0
   -2.2010  103.7384    9.7526 N   0  0  0  0  0  0  0  0  0  0  0  0
   -3.1200  102.6379    9.6811 C   0  0  2  0  0  0  0  0  0  0  0  0
   -4.5400  102.9658    9.8779 C   0  0  0  0  0  0  0  0  0  0  0  0
   -4.9082  103.0201   11.1136 O   0  0  0  0  0  0  0  0  0  0  0  0
   -2.6911  101.6472   10.7813 C   0  0  0  0  0  0  0  0  0  0  0  0
   -1.0363  100.9868   10.4802 S   0  0  0  0  0  0  0  0  0  0  0  0
   -5.5191  103.2201    8.9421 N   0  0  0  0  0  0  0  0  0  0  0  0
   -5.9015  102.3744    7.7757 C   0  0  2  0  0  0  0  0  0  0  0  0
   -5.1719  101.1468    7.7718 C   0  0  0  0  0  0  0  0  0  0  0  0
   -5.3218  100.5657    9.0000 O   0  0  0  0  0  0  0  0  0  0  0  0
   -6.1884  103.2713    6.6720 C   0  0  0  0  0  0  0  0  0  0  0  0
   -7.4984  103.9041    6.5367 C   0  0  0  0  0  0  0  0  0  0  0  0
   -8.6846  103.2120    6.4502 C   0  0  0  0  0  0  0  0  0  0  0  0
   -7.5729  105.2990    6.5750 C   0  0  0  0  0  0  0  0  0  0  0  0
   -9.8863  103.8773    6.4028 C   0  0  0  0  0  0  0  0  0  0  0  0
   -8.7687  105.9782    6.5277 C   0  0  0  0  0  0  0  0  0  0  0  0
   -9.9448  105.2626    6.4402 C   0  0  0  0  0  0  0  0  0  0  0  0
   -4.3748  100.3576    6.9575 N   0  0  0  0  0  0  0  0  0  0  0  0
   -4.5332   99.9098    5.5988 C   0  0  2  0  0  0  0  0  0  0  0  0
   -4.3962   98.4076    5.4654 C   0  0  0  0  0  0  0  0  0  0  0  0
   -3.5372   97.9628    4.6148 O   0  0  0  0  0  0  0  0  0  0  0  0
   -3.2238  100.4816    5.0057 C   0  0  0  0  0  0  0  0  0  0  0  0
   -2.2342  100.1115    6.1215 C   0  0  0  0  0  0  0  0  0  0  0  0
   -3.0855   99.6742    7.2821 C   0  0  0  0  0  0  0  0  0  0  0  0
   -5.1024   97.4405    6.1672 N   0  0  0  0  0  0  0  0  0  0  0  0
   -6.5271   97.3060    6.3764 C   0  0  2  0  0  0  0  0  0  0  0  0
   -6.8153   95.8457    6.6939 C   0  0  0  0  0  0  0  0  0  0  0  0
   -7.7378   95.3339    6.0457 O   0  0  0  0  0  0  0  0  0  0  0  0
   -7.3707   97.7566    5.2198 C   0  0  0  0  0  0  0  0  0  0  0  0
   -7.6178   96.6848    4.2236 C   0  0  0  0  0  0  0  0  0  0  0  0
   -7.8417   95.5180    4.6450 O   0  0  0  0  0  0  0  0  0  0  0  0
   -7.6150   96.8992    2.8272 N   0  0  0  0  0  0  0  0  0  0  0  0
   -4.9151   94.6575    8.3435 O   0  0  0  0  0  0  0  0  0  0  0  0
   -2.3185   89.3053   11.7084 H   0  0  0  0  0  0  0  0  0  0  0  0
   -1.9109  107.7552   20.5753 H   0  0  0  0  0  0  0  0  0  0  0  0
  1  2  1  0
  1108  1  0
  1114  1  0
  2  3  1  0
  2114  1  1
  3  4  2  0
  3  5  1  0
  5  6  1  0
  6  7  1  0
  6  9  1  6
  7  8  2  0
  7 16  1  0
  9 10  1  0
 10 11  1  0
 11 12  1  0
 12 13  1  0
 13 14  2  0
 13 15  1  0
 17 16  1  6
 17 18  1  0
 17 20  1  0
 18 19  2  0
 18 22  1  0
 20 21  1  0
 21 87  1  0
 22 23  1  0
 23 24  1  0
 23 26  1  6
 24 25  2  0
 24 34  1  0
 26 27  1  0
 27 28  2  0
 27 29  1  0
 28 30  1  0
 29 31  2  0
 30 32  2  0
 31 32  1  0
 32 33  1  0
 34 35  1  0
 35 36  1  0
 35 38  1  1
 36 37  2  0
 36 43  1  0
 38 39  1  0
 39 40  1  0
 40 41  1  0
 41 42  1  0
 43 44  1  0
 44 45  1  0
 44 47  1  1
 45 46  2  0
 45 49  1  0
 47 48  1  0
 49 50  1  0
 50 51  1  0
 50 53  1  6
 51 52  2  0
 51 60  1  0
 53 54  1  0
 54 55  1  0
 55 56  1  0
 56 57  1  0
 57 58  2  0
 57 59  1  0
 60 61  1  0
 60 66  1  0
 61 62  1  0
 61 64  1  1
 62 63  2  0
 62 67  1  0
 64 65  1  0
 65 66  1  0
 67 68  1  0
 67 73  1  0
 68 69  1  0
 68 71  1  6
 69 70  2  0
 69 74  1  0
 71 72  1  0
 72 73  1  0
 75 74  1  1
 75 76  1  0
 75 78  1  0
 76 77  2  0
 76 82  1  0
 78 79  1  0
 78 80  1  6
 79 81  1  0
 83 82  1  1
 83 84  1  0
 83 86  1  0
 84 85  2  0
 84 88  1  0
 86 87  1  0
 88 89  1  0
 89 90  1  0
 89 92  1  6
 90 91  2  0
 90 99  1  0
 92 93  1  0
 93 94  2  0
 93 95  1  0
 94 96  1  0
 95 97  2  0
 96 98  2  0
 97 98  1  0
 99100  1  0
 99105  1  0
100101  1  0
100103  1  6
101102  2  0
101106  1  0
103104  1  0
104105  1  0
106107  1  0
107108  1  0
107110  1  6
108109  2  0
110111  1  0
111112  2  0
111113  1  0
 14115  1  0
 58116  1  0
M  CHG  1  42   1
M  END
$$$$
