
     RDKit          3D

116123  0  0  0  0  0  0  0  0999 V2000
  -10.9583  102.8604    4.7804 N   0  0  0  0  0  0  0  0  0  0  0  0
  -10.8670  101.5187    4.4795 C   0  0  2  0  0  0  0  0  0  0  0  0
  -10.4818  100.7014    5.6581 C   0  0  0  0  0  0  0  0  0  0  0  0
  -11.4947  100.4061    6.3994 O   0  0  0  0  0  0  0  0  0  0  0  0
   -9.1971  100.2605    6.0009 N   0  0  0  0  0  0  0  0  0  0  0  0
   -8.2395   99.5500    5.1950 C   0  0  2  0  0  0  0  0  0  0  0  0
   -7.0145  100.3800    5.1554 C   0  0  0  0  0  0  0  0  0  0  0  0
   -6.9368  101.2216    4.2026 O   0  0  0  0  0  0  0  0  0  0  0  0
   -8.6913   99.1850    3.8221 C   0  0  0  0  0  0  0  0  0  0  0  0
   -7.6205   99.3425    2.7710 C   0  0  0  0  0  0  0  0  0  0  0  0
   -6.7105   98.1338    2.9005 C   0  0  0  0  0  0  0  0  0  0  0  0
   -6.9672   97.1414    1.8877 N   0  0  0  0  0  0  0  0  0  0  0  0
   -6.0372   96.8028    0.8604 C   0  0  0  0  0  0  0  0  0  0  0  0
   -4.7712   96.8650    1.1811 N   0  0  0  0  0  0  0  0  0  0  0  0
   -6.4531   96.4196   -0.4396 N   0  0  0  0  0  0  0  0  0  0  0  0
   -5.9372  100.3177    6.0765 N   0  0  0  0  0  0  0  0  0  0  0  0
   -5.2545   99.1141    6.5072 C   0  0  2  0  0  0  0  0  0  0  0  0
   -5.9073   98.5242    7.7030 C   0  0  0  0  0  0  0  0  0  0  0  0
   -6.8005   99.2583    8.2697 O   0  0  0  0  0  0  0  0  0  0  0  0
   -3.8134   99.5427    6.8678 C   0  0  0  0  0  0  0  0  0  0  0  0
   -3.4787  101.2275    6.3373 S   0  0  0  0  0  0  0  0  0  0  0  0
   -5.6683   97.2905    8.2753 N   0  0  0  0  0  0  0  0  0  0  0  0
   -5.7435   95.9576    7.6924 C   0  0  2  0  0  0  0  0  0  0  0  0
   -4.3984   95.4814    7.2984 C   0  0  0  0  0  0  0  0  0  0  0  0
   -3.9681   95.9372    6.1788 O   0  0  0  0  0  0  0  0  0  0  0  0
   -6.7815   95.8322    6.6264 C   0  0  0  0  0  0  0  0  0  0  0  0
   -6.4498   96.4199    5.3253 C   0  0  0  0  0  0  0  0  0  0  0  0
   -7.4154   96.5574    4.3550 C   0  0  0  0  0  0  0  0  0  0  0  0
   -5.1833   96.8644    5.0611 C   0  0  0  0  0  0  0  0  0  0  0  0
   -7.1006   97.1357    3.1384 C   0  0  0  0  0  0  0  0  0  0  0  0
   -4.8649   97.4515    3.8257 C   0  0  0  0  0  0  0  0  0  0  0  0
   -5.8333   97.5797    2.8768 C   0  0  0  0  0  0  0  0  0  0  0  0
   -5.5097   98.1658    1.6494 O   0  0  0  0  0  0  0  0  0  0  0  0
   -3.5646   94.6128    7.9948 N   0  0  0  0  0  0  0  0  0  0  0  0
   -3.9933   93.6165    8.9920 C   0  0  2  0  0  0  0  0  0  0  0  0
   -2.8309   93.2713    9.8427 C   0  0  0  0  0  0  0  0  0  0  0  0
   -2.3520   92.0871    9.6417 O   0  0  0  0  0  0  0  0  0  0  0  0
   -4.4404   92.4307    8.1420 C   0  0  0  0  0  0  0  0  0  0  0  0
   -5.6469   92.6832    7.3070 C   0  0  0  0  0  0  0  0  0  0  0  0
   -6.9083   92.2725    8.0316 C   0  0  0  0  0  0  0  0  0  0  0  0
   -7.8001   91.5224    7.0959 C   0  0  0  0  0  0  0  0  0  0  0  0
   -7.2329   90.2500    6.7235 N   0  0  0  0  0  4  0  0  0  0  0  0
   -2.1847   94.0193   10.8092 N   0  0  0  0  0  0  0  0  0  0  0  0
   -2.6487   94.5667   12.0615 C   0  0  2  0  0  0  0  0  0  0  0  0
   -1.7210   94.1308   13.1667 C   0  0  0  0  0  0  0  0  0  0  0  0
   -1.0893   93.0434   12.9089 O   0  0  0  0  0  0  0  0  0  0  0  0
   -4.0756   94.1839   12.4058 C   0  0  0  0  0  0  0  0  0  0  0  0
   -4.1324   93.1611   13.3272 O   0  0  0  0  0  0  0  0  0  0  0  0
   -1.4853   94.7412   14.3725 N   0  0  0  0  0  0  0  0  0  0  0  0
   -1.1420   96.1164   14.6961 C   0  0  2  0  0  0  0  0  0  0  0  0
   -2.4248   96.7156   15.1474 C   0  0  0  0  0  0  0  0  0  0  0  0
   -3.2207   97.0684   14.2078 O   0  0  0  0  0  0  0  0  0  0  0  0
   -0.4503   96.8519   13.6131 C   0  0  0  0  0  0  0  0  0  0  0  0
   -0.4477   96.0090   12.3566 C   0  0  0  0  0  0  0  0  0  0  0  0
   -1.4176   94.8466   12.4758 C   0  0  0  0  0  0  0  0  0  0  0  0
   -1.8669   94.7169   13.8477 N   0  0  0  0  0  0  0  0  0  0  0  0
   -2.5549   93.5660   14.3136 C   0  0  0  0  0  0  0  0  0  0  0  0
   -2.4118   93.1658   15.5296 N   0  0  0  0  0  0  0  0  0  0  0  0
   -3.4161   92.8290   13.4580 N   0  0  0  0  0  0  0  0  0  0  0  0
   -2.8803   96.9423   16.4427 N   0  0  0  0  0  0  0  0  0  0  0  0
   -2.3424   97.8392   17.4478 C   0  0  2  0  0  0  0  0  0  0  0  0
   -1.3208   98.7663   17.0435 C   0  0  0  0  0  0  0  0  0  0  0  0
   -0.0995   98.4680   16.9381 O   0  0  0  0  0  0  0  0  0  0  0  0
   -1.9683   96.8289   18.5102 C   0  0  0  0  0  0  0  0  0  0  0  0
   -3.1894   95.8957   18.4323 C   0  0  0  0  0  0  0  0  0  0  0  0
   -4.0104   96.3937   17.2410 C   0  0  0  0  0  0  0  0  0  0  0  0
   -1.6477  100.1137   16.7332 N   0  0  0  0  0  0  0  0  0  0  0  0
   -2.8458  100.4753   15.9509 C   0  0  2  0  0  0  0  0  0  0  0  0
   -2.4426  100.7516   14.5676 C   0  0  0  0  0  0  0  0  0  0  0  0
   -1.2974  100.2142   14.2727 O   0  0  0  0  0  0  0  0  0  0  0  0
   -3.4471  101.5480   16.7493 C   0  0  0  0  0  0  0  0  0  0  0  0
   -2.3083  102.1124   17.5835 C   0  0  0  0  0  0  0  0  0  0  0  0
   -1.0520  101.4356   17.0051 C   0  0  0  0  0  0  0  0  0  0  0  0
   -3.0314  101.4545   13.5322 N   0  0  0  0  0  0  0  0  0  0  0  0
   -3.2647  102.8434   13.2572 C   0  0  2  0  0  0  0  0  0  0  0  0
   -2.8211  103.0813   11.8261 C   0  0  0  0  0  0  0  0  0  0  0  0
   -1.6167  102.6940   11.6164 O   0  0  0  0  0  0  0  0  0  0  0  0
   -2.4408  103.8248   14.0498 C   0  0  2  0  0  0  0  0  0  0  0  0
   -0.9630  103.5785   13.6891 C   0  0  0  0  0  0  0  0  0  0  0  0
   -2.4868  103.5711   15.5450 C   0  0  0  0  0  0  0  0  0  0  0  0
   -0.8419  102.6060   12.5581 C   0  0  0  0  0  0  0  0  0  0  0  0
   -3.5691  103.6449   10.8056 N   0  0  0  0  0  0  0  0  0  0  0  0
   -4.8267  103.2534   10.2345 C   0  0  2  0  0  0  0  0  0  0  0  0
   -5.8557  102.8003   11.1823 C   0  0  0  0  0  0  0  0  0  0  0  0
   -5.7679  101.5549   11.5092 O   0  0  0  0  0  0  0  0  0  0  0  0
   -4.5166  102.0984    9.2621 C   0  0  0  0  0  0  0  0  0  0  0  0
   -3.4519  102.6338    7.9037 S   0  0  0  0  0  0  0  0  0  0  0  0
   -6.8858  103.5081   11.7629 N   0  0  0  0  0  0  0  0  0  0  0  0
   -7.9178  104.3363   11.0767 C   0  0  2  0  0  0  0  0  0  0  0  0
   -7.7866  104.2462    9.6574 C   0  0  0  0  0  0  0  0  0  0  0  0
   -7.7697  102.9214    9.3210 O   0  0  0  0  0  0  0  0  0  0  0  0
   -8.1446  105.5081   11.9015 C   0  0  0  0  0  0  0  0  0  0  0  0
   -7.5726  106.8039   11.5426 C   0  0  0  0  0  0  0  0  0  0  0  0
   -7.6919  107.3828   10.3000 C   0  0  0  0  0  0  0  0  0  0  0  0
   -6.9291  107.5472   12.5356 C   0  0  0  0  0  0  0  0  0  0  0  0
   -7.1933  108.6405   10.0582 C   0  0  0  0  0  0  0  0  0  0  0  0
   -6.4245  108.8071   12.3075 C   0  0  0  0  0  0  0  0  0  0  0  0
   -6.5555  109.3663   11.0533 C   0  0  0  0  0  0  0  0  0  0  0  0
   -7.6713  105.0347    8.5233 N   0  0  0  0  0  0  0  0  0  0  0  0
   -8.4094  106.1850    8.0723 C   0  0  2  0  0  0  0  0  0  0  0  0
   -8.9392  106.0163    6.6638 C   0  0  0  0  0  0  0  0  0  0  0  0
   -8.6429  106.9290    5.8045 O   0  0  0  0  0  0  0  0  0  0  0  0
   -7.2352  107.1831    7.9373 C   0  0  0  0  0  0  0  0  0  0  0  0
   -6.1869  106.2823    7.2657 C   0  0  0  0  0  0  0  0  0  0  0  0
   -6.7367  104.8856    7.3661 C   0  0  0  0  0  0  0  0  0  0  0  0
   -9.7202  104.9729    6.1862 N   0  0  0  0  0  0  0  0  0  0  0  0
  -10.9361  104.4060    6.7265 C   0  0  2  0  0  0  0  0  0  0  0  0
  -11.6753  103.7184    5.5876 C   0  0  0  0  0  0  0  0  0  0  0  0
  -12.8769  104.0003    5.4884 O   0  0  0  0  0  0  0  0  0  0  0  0
  -11.8387  105.3979    7.4003 C   0  0  0  0  0  0  0  0  0  0  0  0
  -12.3305  106.4571    6.4848 C   0  0  0  0  0  0  0  0  0  0  0  0
  -13.4624  106.9638    6.7113 O   0  0  0  0  0  0  0  0  0  0  0  0
  -11.6005  106.9294    5.3713 N   0  0  0  0  0  0  0  0  0  0  0  0
  -10.0082  102.3509    3.8285 O   0  0  0  0  0  0  0  0  0  0  0  0
   -4.5223   97.4115    2.0253 H   0  0  0  0  0  0  0  0  0  0  0  0
   -3.0961   92.5643   16.0223 H   0  0  0  0  0  0  0  0  0  0  0  0
  1  2  1  0
  1108  1  0
  1114  1  0
  2  3  1  0
  2114  1  6
  3  4  2  0
  3  5  1  0
  5  6  1  0
  6  7  1  0
  6  9  1  6
  7  8  2  0
  7 16  1  0
  9 10  1  0
 10 11  1  0
 11 12  1  0
 12 13  1  0
 13 14  2  0
 13 15  1  0
 17 16  1  1
 17 18  1  0
 17 20  1  0
 18 19  2  0
 18 22  1  0
 20 21  1  0
 21 87  1  0
 22 23  1  0
 23 24  1  0
 23 26  1  6
 24 25  2  0
 24 34  1  0
 26 27  1  0
 27 28  2  0
 27 29  1  0
 28 30  1  0
 29 31  2  0
 30 32  2  0
 31 32  1  0
 32 33  1  0
 34 35  1  0
 35 36  1  0
 35 38  1  6
 36 37  2  0
 36 43  1  0
 38 39  1  0
 39 40  1  0
 40 41  1  0
 41 42  1  0
 43 44  1  0
 44 45  1  0
 44 47  1  1
 45 46  2  0
 45 49  1  0
 47 48  1  0
 49 50  1  0
 50 51  1  0
 50 53  1  6
 51 52  2  0
 51 60  1  0
 53 54  1  0
 54 55  1  0
 55 56  1  0
 56 57  1  0
 57 58  2  0
 57 59  1  0
 60 61  1  0
 60 66  1  0
 61 62  1  0
 61 64  1  1
 62 63  2  0
 62 67  1  0
 64 65  1  0
 65 66  1  0
 67 68  1  0
 67 73  1  0
 68 69  1  0
 68 71  1  1
 69 70  2  0
 69 74  1  0
 71 72  1  0
 72 73  1  0
 75 74  1  1
 75 76  1  0
 75 78  1  0
 76 77  2  0
 76 82  1  0
 78 79  1  0
 78 80  1  1
 79 81  1  0
 83 82  1  1
 83 84  1  0
 83 86  1  0
 84 85  2  0
 84 88  1  0
 86 87  1  0
 88 89  1  0
 89 90  1  0
 89 92  1  1
 90 91  2  0
 90 99  1  0
 92 93  1  0
 93 94  2  0
 93 95  1  0
 94 96  1  0
 95 97  2  0
 96 98  2  0
 97 98  1  0
 99100  1  0
 99105  1  0
100101  1  0
100103  1  6
101102  2  0
101106  1  0
103104  1  0
104105  1  0
106107  1  0
107108  1  0
107110  1  6
108109  2  0
110111  1  0
111112  2  0
111113  1  0
 14115  1  0
 58116  1  0
M  CHG  1  42   1
M  END
$$$$
