
     RDKit          3D

116123  0  0  0  0  0  0  0  0999 V2000
  -11.9283   97.9980    6.7362 N   0  0  0  0  0  0  0  0  0  0  0  0
  -11.5444   96.8854    7.4529 C   0  0  2  0  0  0  0  0  0  0  0  0
  -10.9445   97.2388    8.7647 C   0  0  0  0  0  0  0  0  0  0  0  0
  -11.8385   97.4419    9.6714 O   0  0  0  0  0  0  0  0  0  0  0  0
   -9.5826   97.3604    9.0690 N   0  0  0  0  0  0  0  0  0  0  0  0
   -8.5158   96.4234    8.8334 C   0  0  2  0  0  0  0  0  0  0  0  0
   -7.5136   97.1186    7.9948 C   0  0  0  0  0  0  0  0  0  0  0  0
   -7.6611   97.0069    6.7346 O   0  0  0  0  0  0  0  0  0  0  0  0
   -8.9182   95.1213    8.2295 C   0  0  0  0  0  0  0  0  0  0  0  0
   -8.2376   94.8279    6.9153 C   0  0  0  0  0  0  0  0  0  0  0  0
   -7.1476   93.8134    7.2132 C   0  0  0  0  0  0  0  0  0  0  0  0
   -6.7415   93.0825    6.0397 N   0  0  0  0  0  0  0  0  0  0  0  0
   -5.9987   91.8654    6.0854 C   0  0  0  0  0  0  0  0  0  0  0  0
   -5.1764   91.6505    5.0919 N   0  0  0  0  0  0  0  0  0  0  0  0
   -6.1383   90.9339    7.1449 N   0  0  0  0  0  0  0  0  0  0  0  0
   -6.4203   97.8877    8.4702 N   0  0  0  0  0  0  0  0  0  0  0  0
   -5.4680   97.4775    9.4826 C   0  0  2  0  0  0  0  0  0  0  0  0
   -5.9294   97.8590   10.8411 C   0  0  0  0  0  0  0  0  0  0  0  0
   -6.9467   98.6471   10.8835 O   0  0  0  0  0  0  0  0  0  0  0  0
   -4.1509   98.2204    9.1602 C   0  0  0  0  0  0  0  0  0  0  0  0
   -4.2258   99.0188    7.5511 S   0  0  0  0  0  0  0  0  0  0  0  0
   -5.3972   97.4721   12.0551 N   0  0  0  0  0  0  0  0  0  0  0  0
   -5.1868   96.1387   12.6028 C   0  0  2  0  0  0  0  0  0  0  0  0
   -3.7825   95.7103   12.4137 C   0  0  0  0  0  0  0  0  0  0  0  0
   -3.5045   95.2639   11.2433 O   0  0  0  0  0  0  0  0  0  0  0  0
   -6.2039   95.1429   12.1519 C   0  0  0  0  0  0  0  0  0  0  0  0
   -5.7747   94.2019   11.1134 C   0  0  0  0  0  0  0  0  0  0  0  0
   -4.5420   94.3352   10.5171 C   0  0  0  0  0  0  0  0  0  0  0  0
   -6.5792   93.1617   10.7364 C   0  0  0  0  0  0  0  0  0  0  0  0
   -4.1336   93.4286    9.5553 C   0  0  0  0  0  0  0  0  0  0  0  0
   -6.1635   92.2418    9.7599 C   0  0  0  0  0  0  0  0  0  0  0  0
   -4.9400   92.3889    9.1803 C   0  0  0  0  0  0  0  0  0  0  0  0
   -4.5322   91.4692    8.2095 O   0  0  0  0  0  0  0  0  0  0  0  0
   -2.7503   95.7392   13.3456 N   0  0  0  0  0  0  0  0  0  0  0  0
   -2.9079   95.7320   14.8106 C   0  0  2  0  0  0  0  0  0  0  0  0
   -1.6697   96.2702   15.4201 C   0  0  0  0  0  0  0  0  0  0  0  0
   -0.9411   95.3879   16.0225 O   0  0  0  0  0  0  0  0  0  0  0  0
   -3.1016   94.2549   15.1410 C   0  0  0  0  0  0  0  0  0  0  0  0
   -2.7587   93.3194   14.0348 C   0  0  0  0  0  0  0  0  0  0  0  0
   -1.5720   93.8203   13.2439 C   0  0  0  0  0  0  0  0  0  0  0  0
   -1.1360   92.7677   12.2768 C   0  0  0  0  0  0  0  0  0  0  0  0
    0.1153   93.1083   11.6461 N   0  0  0  0  0  4  0  0  0  0  0  0
   -1.1787   97.5623   15.4394 N   0  0  0  0  0  0  0  0  0  0  0  0
   -1.7131   98.7784   16.0040 C   0  0  2  0  0  0  0  0  0  0  0  0
   -0.6745   99.4087   16.8962 C   0  0  0  0  0  0  0  0  0  0  0  0
    0.1790   98.5710   17.3630 O   0  0  0  0  0  0  0  0  0  0  0  0
   -3.0034   98.5794   16.7766 C   0  0  0  0  0  0  0  0  0  0  0  0
   -3.8085   97.6176   16.2065 O   0  0  0  0  0  0  0  0  0  0  0  0
   -0.5437  100.7267   17.2535 N   0  0  0  0  0  0  0  0  0  0  0  0
   -0.5115  101.9363   16.4476 C   0  0  2  0  0  0  0  0  0  0  0  0
   -1.8812  102.4976   16.5782 C   0  0  0  0  0  0  0  0  0  0  0  0
   -2.7673  101.9489   15.8335 O   0  0  0  0  0  0  0  0  0  0  0  0
   -0.0416  101.7401   15.0572 C   0  0  0  0  0  0  0  0  0  0  0  0
    0.9458  100.5943   15.0184 C   0  0  0  0  0  0  0  0  0  0  0  0
    0.2374   99.2573   15.1466 C   0  0  0  0  0  0  0  0  0  0  0  0
   -0.4826   98.9606   13.9241 N   0  0  0  0  0  0  0  0  0  0  0  0
    0.0577   99.2372   12.6409 C   0  0  0  0  0  0  0  0  0  0  0  0
   -0.4499  100.1629   11.9030 N   0  0  0  0  0  0  0  0  0  0  0  0
    1.1671   98.5067   12.1385 N   0  0  0  0  0  0  0  0  0  0  0  0
   -2.3330  103.5293   17.3956 N   0  0  0  0  0  0  0  0  0  0  0  0
   -1.9801  104.9358   17.3573 C   0  0  2  0  0  0  0  0  0  0  0  0
   -1.2099  105.4050   16.2378 C   0  0  0  0  0  0  0  0  0  0  0  0
    0.0430  105.2896   16.1456 O   0  0  0  0  0  0  0  0  0  0  0  0
   -1.3508  105.0731   18.7266 C   0  0  0  0  0  0  0  0  0  0  0  0
   -2.3297  104.2235   19.5561 C   0  0  0  0  0  0  0  0  0  0  0  0
   -3.2816  103.5870   18.5411 C   0  0  0  0  0  0  0  0  0  0  0  0
   -1.8449  106.0471   15.1407 N   0  0  0  0  0  0  0  0  0  0  0  0
   -3.1191  105.5648   14.5735 C   0  0  2  0  0  0  0  0  0  0  0  0
   -2.8355  104.8022   13.3527 C   0  0  0  0  0  0  0  0  0  0  0  0
   -1.6086  104.3777   13.3120 O   0  0  0  0  0  0  0  0  0  0  0  0
   -3.9217  106.7885   14.4832 C   0  0  0  0  0  0  0  0  0  0  0  0
   -2.9139  107.9262   14.4480 C   0  0  0  0  0  0  0  0  0  0  0  0
   -1.5566  107.2168   14.2894 C   0  0  0  0  0  0  0  0  0  0  0  0
   -3.6028  104.4482   12.2578 N   0  0  0  0  0  0  0  0  0  0  0  0
   -4.1548  105.1564   11.1384 C   0  0  2  0  0  0  0  0  0  0  0  0
   -3.8248  104.3385    9.9040 C   0  0  0  0  0  0  0  0  0  0  0  0
   -2.5715  104.0851    9.8057 O   0  0  0  0  0  0  0  0  0  0  0  0
   -3.5497  106.5038   10.8412 C   0  0  2  0  0  0  0  0  0  0  0  0
   -2.6860  106.8958   12.0556 C   0  0  0  0  0  0  0  0  0  0  0  0
   -4.5790  107.6159   10.7657 C   0  0  0  0  0  0  0  0  0  0  0  0
   -2.3146  105.6905   12.8610 C   0  0  0  0  0  0  0  0  0  0  0  0
   -4.7148  103.8799    8.9469 N   0  0  0  0  0  0  0  0  0  0  0  0
   -5.8688  103.0340    9.0641 C   0  0  2  0  0  0  0  0  0  0  0  0
   -6.7357  103.2780   10.2266 C   0  0  0  0  0  0  0  0  0  0  0  0
   -6.3562  102.6852   11.3083 O   0  0  0  0  0  0  0  0  0  0  0  0
   -5.3367  101.5897    9.1469 C   0  0  0  0  0  0  0  0  0  0  0  0
   -4.4674  101.1084    7.6377 S   0  0  0  0  0  0  0  0  0  0  0  0
   -7.8798  104.0401   10.3227 N   0  0  0  0  0  0  0  0  0  0  0  0
   -9.0954  103.9649    9.4632 C   0  0  2  0  0  0  0  0  0  0  0  0
   -8.9943  102.8925    8.5255 C   0  0  0  0  0  0  0  0  0  0  0  0
   -8.6879  101.7556    9.2198 O   0  0  0  0  0  0  0  0  0  0  0  0
   -9.5551  105.3245    9.2514 C   0  0  0  0  0  0  0  0  0  0  0  0
   -8.9875  106.1550    8.1917 C   0  0  0  0  0  0  0  0  0  0  0  0
   -7.7038  106.6507    8.2035 C   0  0  0  0  0  0  0  0  0  0  0  0
   -9.7589  106.4039    7.0534 C   0  0  0  0  0  0  0  0  0  0  0  0
   -7.2132  107.3607    7.1339 C   0  0  0  0  0  0  0  0  0  0  0  0
   -9.2810  107.1137    5.9757 C   0  0  0  0  0  0  0  0  0  0  0  0
   -7.9911  107.6013    6.0110 C   0  0  0  0  0  0  0  0  0  0  0  0
   -9.0992  102.6184    7.1708 N   0  0  0  0  0  0  0  0  0  0  0  0
  -10.0940  102.9706    6.1922 C   0  0  2  0  0  0  0  0  0  0  0  0
  -10.6182  101.7648    5.4408 C   0  0  0  0  0  0  0  0  0  0  0  0
  -10.5659  101.7980    4.1541 O   0  0  0  0  0  0  0  0  0  0  0  0
   -9.1827  103.7034    5.1795 C   0  0  0  0  0  0  0  0  0  0  0  0
   -7.9800  102.7472    5.1528 C   0  0  0  0  0  0  0  0  0  0  0  0
   -8.1942  101.8031    6.3042 C   0  0  0  0  0  0  0  0  0  0  0  0
  -11.1569  100.6095    5.9902 N   0  0  0  0  0  0  0  0  0  0  0  0
  -12.1934  100.4563    6.9871 C   0  0  2  0  0  0  0  0  0  0  0  0
  -12.7943   99.0676    6.8243 C   0  0  0  0  0  0  0  0  0  0  0  0
  -14.0312   99.0262    6.7834 O   0  0  0  0  0  0  0  0  0  0  0  0
  -13.2750  101.4949    6.9242 C   0  0  0  0  0  0  0  0  0  0  0  0
  -14.5315  101.0718    7.5907 C   0  0  0  0  0  0  0  0  0  0  0  0
  -14.4662  100.6548    8.7786 O   0  0  0  0  0  0  0  0  0  0  0  0
  -15.7986  101.1093    6.9670 N   0  0  0  0  0  0  0  0  0  0  0  0
  -10.9194   97.0900    6.2607 O   0  0  0  0  0  0  0  0  0  0  0  0
   -5.5139   91.0493    4.3187 H   0  0  0  0  0  0  0  0  0  0  0  0
   -1.0158  100.9481   12.2717 H   0  0  0  0  0  0  0  0  0  0  0  0
  1  2  1  0
  1108  1  0
  1114  1  0
  2  3  1  0
  2114  1  6
  3  4  2  0
  3  5  1  0
  5  6  1  0
  6  7  1  0
  6  9  1  6
  7  8  2  0
  7 16  1  0
  9 10  1  0
 10 11  1  0
 11 12  1  0
 12 13  1  0
 13 14  2  0
 13 15  1  0
 17 16  1  6
 17 18  1  0
 17 20  1  0
 18 19  2  0
 18 22  1  0
 20 21  1  0
 21 87  1  0
 22 23  1  0
 23 24  1  0
 23 26  1  6
 24 25  2  0
 24 34  1  0
 26 27  1  0
 27 28  2  0
 27 29  1  0
 28 30  1  0
 29 31  2  0
 30 32  2  0
 31 32  1  0
 32 33  1  0
 34 35  1  0
 35 36  1  0
 35 38  1  1
 36 37  2  0
 36 43  1  0
 38 39  1  0
 39 40  1  0
 40 41  1  0
 41 42  1  0
 43 44  1  0
 44 45  1  0
 44 47  1  1
 45 46  2  0
 45 49  1  0
 47 48  1  0
 49 50  1  0
 50 51  1  0
 50 53  1  6
 51 52  2  0
 51 60  1  0
 53 54  1  0
 54 55  1  0
 55 56  1  0
 56 57  1  0
 57 58  2  0
 57 59  1  0
 60 61  1  0
 60 66  1  0
 61 62  1  0
 61 64  1  1
 62 63  2  0
 62 67  1  0
 64 65  1  0
 65 66  1  0
 67 68  1  0
 67 73  1  0
 68 69  1  0
 68 71  1  6
 69 70  2  0
 69 74  1  0
 71 72  1  0
 72 73  1  0
 75 74  1  1
 75 76  1  0
 75 78  1  0
 76 77  2  0
 76 82  1  0
 78 79  1  0
 78 80  1  1
 79 81  1  0
 83 82  1  1
 83 84  1  0
 83 86  1  0
 84 85  2  0
 84 88  1  0
 86 87  1  0
 88 89  1  0
 89 90  1  0
 89 92  1  6
 90 91  2  0
 90 99  1  0
 92 93  1  0
 93 94  2  0
 93 95  1  0
 94 96  1  0
 95 97  2  0
 96 98  2  0
 97 98  1  0
 99100  1  0
 99105  1  0
100101  1  0
100103  1  6
101102  2  0
101106  1  0
103104  1  0
104105  1  0
106107  1  0
107108  1  0
107110  1  6
108109  2  0
110111  1  0
111112  2  0
111113  1  0
 14115  1  0
 58116  1  0
M  CHG  1  42   1
M  END
$$$$
