
     RDKit          3D

116123  0  0  0  0  0  0  0  0999 V2000
   -9.3997  106.9589    8.1293 N   0  0  0  0  0  0  0  0  0  0  0  0
   -9.7201  105.8579    7.3650 C   0  0  2  0  0  0  0  0  0  0  0  0
   -9.6170  104.5901    8.1315 C   0  0  0  0  0  0  0  0  0  0  0  0
  -10.6800  104.3481    8.8201 O   0  0  0  0  0  0  0  0  0  0  0  0
   -8.5329  103.7035    8.1619 N   0  0  0  0  0  0  0  0  0  0  0  0
   -7.8297  103.0964    7.0627 C   0  0  2  0  0  0  0  0  0  0  0  0
   -6.4091  103.4909    7.1939 C   0  0  0  0  0  0  0  0  0  0  0  0
   -6.0667  104.5635    6.5984 O   0  0  0  0  0  0  0  0  0  0  0  0
   -8.3559  103.4102    5.7037 C   0  0  0  0  0  0  0  0  0  0  0  0
   -8.0572  102.3446    4.6784 C   0  0  0  0  0  0  0  0  0  0  0  0
   -7.5650  101.1325    5.4495 C   0  0  0  0  0  0  0  0  0  0  0  0
   -8.5691  100.5992    6.3347 N   0  0  0  0  0  0  0  0  0  0  0  0
   -9.2439   99.3628    6.1094 C   0  0  0  0  0  0  0  0  0  0  0  0
   -9.2920   98.5359    7.1211 N   0  0  0  0  0  0  0  0  0  0  0  0
   -9.8323   99.0391    4.8610 N   0  0  0  0  0  0  0  0  0  0  0  0
   -5.4130  102.7855    7.9172 N   0  0  0  0  0  0  0  0  0  0  0  0
   -5.1365  101.3662    7.8211 C   0  0  2  0  0  0  0  0  0  0  0  0
   -5.9520  100.5925    8.7908 C   0  0  0  0  0  0  0  0  0  0  0  0
   -6.5840  101.2900    9.6694 O   0  0  0  0  0  0  0  0  0  0  0  0
   -3.6376  101.1962    8.1600 C   0  0  0  0  0  0  0  0  0  0  0  0
   -2.7972  102.7840    8.2291 S   0  0  0  0  0  0  0  0  0  0  0  0
   -6.1086   99.2224    8.8613 N   0  0  0  0  0  0  0  0  0  0  0  0
   -6.5816   98.2811    7.8552 C   0  0  2  0  0  0  0  0  0  0  0  0
   -5.4425   97.6175    7.1820 C   0  0  0  0  0  0  0  0  0  0  0  0
   -4.8806   98.3088    6.2585 O   0  0  0  0  0  0  0  0  0  0  0  0
   -7.5960   98.8627    6.9266 C   0  0  0  0  0  0  0  0  0  0  0  0
   -7.0743   99.6561    5.8101 C   0  0  0  0  0  0  0  0  0  0  0  0
   -7.7879  100.7255    5.3204 C   0  0  0  0  0  0  0  0  0  0  0  0
   -5.8599   99.3643    5.2521 C   0  0  0  0  0  0  0  0  0  0  0  0
   -7.2776  101.4849    4.2828 C   0  0  0  0  0  0  0  0  0  0  0  0
   -5.3427  100.1359    4.1987 C   0  0  0  0  0  0  0  0  0  0  0  0
   -6.0627  101.1911    3.7266 C   0  0  0  0  0  0  0  0  0  0  0  0
   -5.5416  101.9555    2.6784 O   0  0  0  0  0  0  0  0  0  0  0  0
   -4.9225   96.3526    7.4360 N   0  0  0  0  0  0  0  0  0  0  0  0
   -5.6469   95.2283    8.0542 C   0  0  2  0  0  0  0  0  0  0  0  0
   -4.6556   94.2743    8.6031 C   0  0  0  0  0  0  0  0  0  0  0  0
   -4.5600   93.1637    7.9476 O   0  0  0  0  0  0  0  0  0  0  0  0
   -6.4258   94.6228    6.8900 C   0  0  0  0  0  0  0  0  0  0  0  0
   -7.7756   94.1056    7.2463 C   0  0  0  0  0  0  0  0  0  0  0  0
   -7.8142   92.5956    7.1909 C   0  0  0  0  0  0  0  0  0  0  0  0
   -8.0005   92.1522    5.7759 C   0  0  0  0  0  0  0  0  0  0  0  0
   -8.0553   90.7151    5.6701 N   0  0  0  0  0  4  0  0  0  0  0  0
   -3.8225   94.3925    9.6999 N   0  0  0  0  0  0  0  0  0  0  0  0
   -4.1108   94.5486   11.1055 C   0  0  2  0  0  0  0  0  0  0  0  0
   -3.3737   93.4883   11.8831 C   0  0  0  0  0  0  0  0  0  0  0  0
   -3.1023   92.4401   11.1934 O   0  0  0  0  0  0  0  0  0  0  0  0
   -5.5902   94.4951   11.4367 C   0  0  0  0  0  0  0  0  0  0  0  0
   -6.0965   95.7350   11.7602 O   0  0  0  0  0  0  0  0  0  0  0  0
   -2.9761   93.5152   13.1958 N   0  0  0  0  0  0  0  0  0  0  0  0
   -2.2320   94.5121   13.9484 C   0  0  2  0  0  0  0  0  0  0  0  0
   -3.2749   95.2454   14.7120 C   0  0  0  0  0  0  0  0  0  0  0  0
   -3.9139   96.1331   14.0454 O   0  0  0  0  0  0  0  0  0  0  0  0
   -1.3362   95.3617   13.1310 C   0  0  0  0  0  0  0  0  0  0  0  0
   -0.8878   94.5885   11.9102 C   0  0  0  0  0  0  0  0  0  0  0  0
   -0.3074   93.2402   12.2994 C   0  0  0  0  0  0  0  0  0  0  0  0
   -1.3671   92.3550   12.7402 N   0  0  0  0  0  0  0  0  0  0  0  0
   -1.5268   91.0455   12.2163 C   0  0  0  0  0  0  0  0  0  0  0  0
   -0.9840   90.7188   11.0947 N   0  0  0  0  0  0  0  0  0  0  0  0
   -2.2836   90.0643   12.9103 N   0  0  0  0  0  0  0  0  0  0  0  0
   -3.6538   95.0997   16.0431 N   0  0  0  0  0  0  0  0  0  0  0  0
   -2.8786   95.3666   17.2397 C   0  0  2  0  0  0  0  0  0  0  0  0
   -1.6177   96.0400   17.0872 C   0  0  0  0  0  0  0  0  0  0  0  0
   -0.5452   95.4630   16.7580 O   0  0  0  0  0  0  0  0  0  0  0  0
   -2.8438   93.9742   17.8310 C   0  0  0  0  0  0  0  0  0  0  0  0
   -4.2909   93.5307   17.5536 C   0  0  0  0  0  0  0  0  0  0  0  0
   -4.9066   94.6467   16.7070 C   0  0  0  0  0  0  0  0  0  0  0  0
   -1.5130   97.4395   17.3095 N   0  0  0  0  0  0  0  0  0  0  0  0
   -2.5339   98.3931   16.8336 C   0  0  2  0  0  0  0  0  0  0  0  0
   -2.0499   99.0307   15.6043 C   0  0  0  0  0  0  0  0  0  0  0  0
   -1.1209   98.3341   15.0220 O   0  0  0  0  0  0  0  0  0  0  0  0
   -2.7870   99.2202   18.0175 C   0  0  0  0  0  0  0  0  0  0  0  0
   -1.5397   99.0829   18.8757 C   0  0  0  0  0  0  0  0  0  0  0  0
   -0.5444   98.3354   17.9692 C   0  0  0  0  0  0  0  0  0  0  0  0
   -2.3835  100.2034   14.9513 N   0  0  0  0  0  0  0  0  0  0  0  0
   -2.1772  101.5995   15.2116 C   0  0  2  0  0  0  0  0  0  0  0  0
   -1.6659  102.2092   13.9200 C   0  0  0  0  0  0  0  0  0  0  0  0
   -0.6356  101.5967   13.4641 O   0  0  0  0  0  0  0  0  0  0  0  0
   -1.1016  101.9368   16.2111 C   0  0  2  0  0  0  0  0  0  0  0  0
   -0.7803  103.4352   16.0500 C   0  0  0  0  0  0  0  0  0  0  0  0
    0.2222  101.2574   15.9143 C   0  0  0  0  0  0  0  0  0  0  0  0
   -1.0017  103.8824   14.6392 C   0  0  0  0  0  0  0  0  0  0  0  0
   -2.1940  103.2992   13.2479 N   0  0  0  0  0  0  0  0  0  0  0  0
   -3.5044  103.5266   12.7078 C   0  0  2  0  0  0  0  0  0  0  0  0
   -4.6334  103.0738   13.5341 C   0  0  0  0  0  0  0  0  0  0  0  0
   -4.9347  101.8274   13.3879 O   0  0  0  0  0  0  0  0  0  0  0  0
   -3.5518  102.7750   11.3629 C   0  0  0  0  0  0  0  0  0  0  0  0
   -2.3590  103.4416   10.1804 S   0  0  0  0  0  0  0  0  0  0  0  0
   -5.4039  103.7824   14.4302 N   0  0  0  0  0  0  0  0  0  0  0  0
   -6.1251  105.0651   14.1919 C   0  0  2  0  0  0  0  0  0  0  0  0
   -6.0116  105.4706   12.8272 C   0  0  0  0  0  0  0  0  0  0  0  0
   -6.3972  104.4191   12.0436 O   0  0  0  0  0  0  0  0  0  0  0  0
   -5.9916  105.8619   15.3968 C   0  0  0  0  0  0  0  0  0  0  0  0
   -5.6628  107.2839   15.3268 C   0  0  0  0  0  0  0  0  0  0  0  0
   -4.3844  107.7747   15.1911 C   0  0  0  0  0  0  0  0  0  0  0  0
   -6.7084  108.2109   15.3170 C   0  0  0  0  0  0  0  0  0  0  0  0
   -4.1587  109.1234   15.0537 C   0  0  0  0  0  0  0  0  0  0  0  0
   -6.4971  109.5639   15.1810 C   0  0  0  0  0  0  0  0  0  0  0  0
   -5.2065  110.0323   15.0472 C   0  0  0  0  0  0  0  0  0  0  0  0
   -5.6477  106.5522   12.0405 N   0  0  0  0  0  0  0  0  0  0  0  0
   -5.9930  107.9480   12.1046 C   0  0  2  0  0  0  0  0  0  0  0  0
   -6.5331  108.4709   10.7900 C   0  0  0  0  0  0  0  0  0  0  0  0
   -5.9619  109.5088   10.2840 O   0  0  0  0  0  0  0  0  0  0  0  0
   -4.5682  108.5409   12.2118 C   0  0  0  0  0  0  0  0  0  0  0  0
   -3.8385  107.6900   11.1607 C   0  0  0  0  0  0  0  0  0  0  0  0
   -4.7905  106.5774   10.8160 C   0  0  0  0  0  0  0  0  0  0  0  0
   -7.5905  107.9502   10.0569 N   0  0  0  0  0  0  0  0  0  0  0  0
   -8.9276  107.6010   10.4833 C   0  0  2  0  0  0  0  0  0  0  0  0
   -9.8288  107.6264    9.2572 C   0  0  0  0  0  0  0  0  0  0  0  0
  -10.8852  108.2589    9.3883 O   0  0  0  0  0  0  0  0  0  0  0  0
   -9.4909  108.4896   11.5537 C   0  0  0  0  0  0  0  0  0  0  0  0
  -10.6291  109.3190   11.0862 C   0  0  0  0  0  0  0  0  0  0  0  0
  -10.6561  110.5356   11.4150 O   0  0  0  0  0  0  0  0  0  0  0  0
  -11.6864  108.8201   10.2930 N   0  0  0  0  0  0  0  0  0  0  0  0
   -8.6405  106.5854    6.9663 O   0  0  0  0  0  0  0  0  0  0  0  0
  -10.1945   98.4527    7.6230 H   0  0  0  0  0  0  0  0  0  0  0  0
    0.0108   90.8919   10.8642 H   0  0  0  0  0  0  0  0  0  0  0  0
  1  2  1  0
  1108  1  0
  1114  1  0
  2  3  1  0
  2114  1  6
  3  4  2  0
  3  5  1  0
  5  6  1  0
  6  7  1  0
  6  9  1  6
  7  8  2  0
  7 16  1  0
  9 10  1  0
 10 11  1  0
 11 12  1  0
 12 13  1  0
 13 14  2  0
 13 15  1  0
 17 16  1  1
 17 18  1  0
 17 20  1  0
 18 19  2  0
 18 22  1  0
 20 21  1  0
 21 87  1  0
 22 23  1  0
 23 24  1  0
 23 26  1  6
 24 25  2  0
 24 34  1  0
 26 27  1  0
 27 28  2  0
 27 29  1  0
 28 30  1  0
 29 31  2  0
 30 32  2  0
 31 32  1  0
 32 33  1  0
 34 35  1  0
 35 36  1  0
 35 38  1  6
 36 37  2  0
 36 43  1  0
 38 39  1  0
 39 40  1  0
 40 41  1  0
 41 42  1  0
 43 44  1  0
 44 45  1  0
 44 47  1  6
 45 46  2  0
 45 49  1  0
 47 48  1  0
 49 50  1  0
 50 51  1  0
 50 53  1  6
 51 52  2  0
 51 60  1  0
 53 54  1  0
 54 55  1  0
 55 56  1  0
 56 57  1  0
 57 58  2  0
 57 59  1  0
 60 61  1  0
 60 66  1  0
 61 62  1  0
 61 64  1  6
 62 63  2  0
 62 67  1  0
 64 65  1  0
 65 66  1  0
 67 68  1  0
 67 73  1  0
 68 69  1  0
 68 71  1  1
 69 70  2  0
 69 74  1  0
 71 72  1  0
 72 73  1  0
 75 74  1  6
 75 76  1  0
 75 78  1  0
 76 77  2  0
 76 82  1  0
 78 79  1  0
 78 80  1  6
 79 81  1  0
 83 82  1  1
 83 84  1  0
 83 86  1  0
 84 85  2  0
 84 88  1  0
 86 87  1  0
 88 89  1  0
 89 90  1  0
 89 92  1  1
 90 91  2  0
 90 99  1  0
 92 93  1  0
 93 94  2  0
 93 95  1  0
 94 96  1  0
 95 97  2  0
 96 98  2  0
 97 98  1  0
 99100  1  0
 99105  1  0
100101  1  0
100103  1  6
101102  2  0
101106  1  0
103104  1  0
104105  1  0
106107  1  0
107108  1  0
107110  1  1
108109  2  0
110111  1  0
111112  2  0
111113  1  0
 14115  1  0
 58116  1  0
M  CHG  1  42   1
M  END
$$$$
