
     RDKit          3D

116123  0  0  0  0  0  0  0  0999 V2000
   -2.9249  107.1056   16.8213 N   0  0  0  0  0  0  0  0  0  0  0  0
   -1.8707  106.2261   16.9399 C   0  0  2  0  0  0  0  0  0  0  0  0
   -1.7622  105.3150   15.7722 C   0  0  0  0  0  0  0  0  0  0  0  0
   -1.1249  105.8545   14.7897 O   0  0  0  0  0  0  0  0  0  0  0  0
   -2.2632  104.0112   15.6646 N   0  0  0  0  0  0  0  0  0  0  0  0
   -2.0777  102.8946   16.5534 C   0  0  2  0  0  0  0  0  0  0  0  0
   -3.4264  102.4614   16.9828 C   0  0  0  0  0  0  0  0  0  0  0  0
   -3.8819  103.0078   18.0393 O   0  0  0  0  0  0  0  0  0  0  0  0
   -1.1885  103.1388   17.7246 C   0  0  0  0  0  0  0  0  0  0  0  0
   -0.4566  104.4567   17.6640 C   0  0  0  0  0  0  0  0  0  0  0  0
   -0.4878  104.8990   16.2116 C   0  0  0  0  0  0  0  0  0  0  0  0
   -1.7159  104.5339   15.5522 N   0  0  0  0  0  0  0  0  0  0  0  0
   -3.0092  104.7633   16.1086 C   0  0  0  0  0  0  0  0  0  0  0  0
   -3.7728  103.7118   16.2534 N   0  0  0  0  0  0  0  0  0  0  0  0
   -3.4514  106.0562   16.4859 N   0  0  0  0  0  0  0  0  0  0  0  0
   -4.2414  101.5040   16.3256 N   0  0  0  0  0  0  0  0  0  0  0  0
   -3.8236  100.1864   15.8901 C   0  0  2  0  0  0  0  0  0  0  0  0
   -3.2846  100.2228   14.5072 C   0  0  0  0  0  0  0  0  0  0  0  0
   -3.4665  101.3250   13.8668 O   0  0  0  0  0  0  0  0  0  0  0  0
   -5.0902   99.3004   15.9243 C   0  0  0  0  0  0  0  0  0  0  0  0
   -6.4513  100.1346   16.7513 S   0  0  0  0  0  0  0  0  0  0  0  0
   -2.6184   99.2193   13.8321 N   0  0  0  0  0  0  0  0  0  0  0  0
   -1.4027   98.4995   14.1870 C   0  0  2  0  0  0  0  0  0  0  0  0
   -1.7280   97.1911   14.7983 C   0  0  0  0  0  0  0  0  0  0  0  0
   -2.0521   97.2377   16.0389 O   0  0  0  0  0  0  0  0  0  0  0  0
   -0.4301   99.3221   14.9660 C   0  0  0  0  0  0  0  0  0  0  0  0
   -0.7003   99.4615   16.3998 C   0  0  0  0  0  0  0  0  0  0  0  0
   -1.8828   99.0049   16.9347 C   0  0  0  0  0  0  0  0  0  0  0  0
    0.2259  100.0241   17.2347 C   0  0  0  0  0  0  0  0  0  0  0  0
   -2.1205   99.1176   18.2929 C   0  0  0  0  0  0  0  0  0  0  0  0
   -0.0164  100.1379   18.6133 C   0  0  0  0  0  0  0  0  0  0  0  0
   -1.1923   99.6804   19.1257 C   0  0  0  0  0  0  0  0  0  0  0  0
   -1.4267   99.7961   20.4992 O   0  0  0  0  0  0  0  0  0  0  0  0
   -1.7233   95.9411   14.1881 N   0  0  0  0  0  0  0  0  0  0  0  0
   -0.9535   95.5677   12.9885 C   0  0  2  0  0  0  0  0  0  0  0  0
   -1.5832   94.3743   12.3776 C   0  0  0  0  0  0  0  0  0  0  0  0
   -0.9028   93.2825   12.5087 O   0  0  0  0  0  0  0  0  0  0  0  0
    0.4341   95.2521   13.5392 C   0  0  0  0  0  0  0  0  0  0  0  0
    1.4776   95.0218   12.5026 C   0  0  0  0  0  0  0  0  0  0  0  0
    1.0808   95.6396   11.1814 C   0  0  0  0  0  0  0  0  0  0  0  0
    1.1646   97.1284   11.2811 C   0  0  0  0  0  0  0  0  0  0  0  0
    1.0724   97.7557    9.9858 N   0  0  0  0  0  4  0  0  0  0  0  0
   -2.7800   94.2525   11.6963 N   0  0  0  0  0  0  0  0  0  0  0  0
   -3.2414   94.8447   10.4636 C   0  0  2  0  0  0  0  0  0  0  0  0
   -3.7269   93.7553    9.5419 C   0  0  0  0  0  0  0  0  0  0  0  0
   -3.1967   92.6097    9.7756 O   0  0  0  0  0  0  0  0  0  0  0  0
   -2.1944   95.6866    9.7592 C   0  0  0  0  0  0  0  0  0  0  0  0
   -1.2433   94.9144    9.1288 O   0  0  0  0  0  0  0  0  0  0  0  0
   -4.6363   93.8463    8.5188 N   0  0  0  0  0  0  0  0  0  0  0  0
   -5.9774   94.4065    8.4797 C   0  0  2  0  0  0  0  0  0  0  0  0
   -5.7976   95.7380    7.8446 C   0  0  0  0  0  0  0  0  0  0  0  0
   -5.3669   96.6588    8.6241 O   0  0  0  0  0  0  0  0  0  0  0  0
   -6.6794   94.4206    9.7833 C   0  0  0  0  0  0  0  0  0  0  0  0
   -7.0371   93.0038   10.1757 C   0  0  0  0  0  0  0  0  0  0  0  0
   -6.2357   91.9948    9.3722 C   0  0  0  0  0  0  0  0  0  0  0  0
   -4.9753   92.5805    8.9605 N   0  0  0  0  0  0  0  0  0  0  0  0
   -3.9385   91.8098    8.3722 C   0  0  0  0  0  0  0  0  0  0  0  0
   -4.1931   91.0049    7.3993 N   0  0  0  0  0  0  0  0  0  0  0  0
   -2.5995   91.9051    8.8358 N   0  0  0  0  0  0  0  0  0  0  0  0
   -6.0279   96.1203    6.5265 N   0  0  0  0  0  0  0  0  0  0  0  0
   -7.2853   96.1721    5.8052 C   0  0  2  0  0  0  0  0  0  0  0  0
   -8.4982   95.9893    6.5550 C   0  0  0  0  0  0  0  0  0  0  0  0
   -8.9598   94.8628    6.8859 O   0  0  0  0  0  0  0  0  0  0  0  0
   -6.9928   95.1596    4.7194 C   0  0  0  0  0  0  0  0  0  0  0  0
   -5.5376   95.5358    4.3894 C   0  0  0  0  0  0  0  0  0  0  0  0
   -5.1410   96.5885    5.4267 C   0  0  0  0  0  0  0  0  0  0  0  0
   -9.2657   97.1092    6.9742 N   0  0  0  0  0  0  0  0  0  0  0  0
   -8.6448   98.3346    7.5136 C   0  0  2  0  0  0  0  0  0  0  0  0
   -8.7489   98.3136    8.9768 C   0  0  0  0  0  0  0  0  0  0  0  0
   -8.9344   97.1141    9.4393 O   0  0  0  0  0  0  0  0  0  0  0  0
   -9.3166   99.4000    6.7632 C   0  0  0  0  0  0  0  0  0  0  0  0
  -10.6284   98.7924    6.2929 C   0  0  0  0  0  0  0  0  0  0  0  0
  -10.7011   97.4444    7.0335 C   0  0  0  0  0  0  0  0  0  0  0  0
   -8.6854   99.2994    9.9448 N   0  0  0  0  0  0  0  0  0  0  0  0
   -9.5488  100.3691   10.3566 C   0  0  2  0  0  0  0  0  0  0  0  0
   -9.6352  100.2970   11.8695 C   0  0  0  0  0  0  0  0  0  0  0  0
   -9.9923   99.1373   12.2844 O   0  0  0  0  0  0  0  0  0  0  0  0
  -10.9862  100.2694    9.9160 C   0  0  2  0  0  0  0  0  0  0  0  0
  -11.8328   99.9948   11.1738 C   0  0  0  0  0  0  0  0  0  0  0  0
  -11.2578   99.0632    9.0366 C   0  0  0  0  0  0  0  0  0  0  0  0
  -11.1111   99.0851   12.1178 C   0  0  0  0  0  0  0  0  0  0  0  0
   -9.3746  101.3187   12.7677 N   0  0  0  0  0  0  0  0  0  0  0  0
   -8.1919  102.1034   12.9825 C   0  0  2  0  0  0  0  0  0  0  0  0
   -7.4753  102.5393   11.7746 C   0  0  0  0  0  0  0  0  0  0  0  0
   -6.6499  101.6675   11.3009 O   0  0  0  0  0  0  0  0  0  0  0  0
   -7.2422  101.2284   13.8242 C   0  0  0  0  0  0  0  0  0  0  0  0
   -7.9406  100.8519   15.4477 S   0  0  0  0  0  0  0  0  0  0  0  0
   -7.5598  103.7303   11.0867 N   0  0  0  0  0  0  0  0  0  0  0  0
   -7.4196  105.1085   11.6371 C   0  0  2  0  0  0  0  0  0  0  0  0
   -7.0729  105.0742   13.0221 C   0  0  0  0  0  0  0  0  0  0  0  0
   -5.9791  104.2662   13.1609 O   0  0  0  0  0  0  0  0  0  0  0  0
   -8.3942  105.9419   10.9588 C   0  0  0  0  0  0  0  0  0  0  0  0
   -8.5275  107.3606   11.2825 C   0  0  0  0  0  0  0  0  0  0  0  0
   -9.4308  108.2076   10.6825 C   0  0  0  0  0  0  0  0  0  0  0  0
   -7.7497  107.8845   12.3185 C   0  0  0  0  0  0  0  0  0  0  0  0
   -9.5524  109.5134   11.0938 C   0  0  0  0  0  0  0  0  0  0  0  0
   -7.8603  109.1898   12.7401 C   0  0  0  0  0  0  0  0  0  0  0  0
   -8.7725  110.0202   12.1227 C   0  0  0  0  0  0  0  0  0  0  0  0
   -7.4643  105.5742   14.2542 N   0  0  0  0  0  0  0  0  0  0  0  0
   -7.8035  106.9035   14.6893 C   0  0  2  0  0  0  0  0  0  0  0  0
   -7.0106  107.3338   15.9056 C   0  0  0  0  0  0  0  0  0  0  0  0
   -7.6727  107.7462   16.9307 O   0  0  0  0  0  0  0  0  0  0  0  0
   -9.2279  106.6228   15.2236 C   0  0  0  0  0  0  0  0  0  0  0  0
   -8.9827  105.3055   15.9758 C   0  0  0  0  0  0  0  0  0  0  0  0
   -7.6097  104.8554   15.5569 C   0  0  0  0  0  0  0  0  0  0  0  0
   -5.6294  107.3339   16.0431 N   0  0  0  0  0  0  0  0  0  0  0  0
   -4.6136  107.8800   15.1704 C   0  0  2  0  0  0  0  0  0  0  0  0
   -3.3656  108.1267   16.0059 C   0  0  0  0  0  0  0  0  0  0  0  0
   -2.8519  109.2456   15.8744 O   0  0  0  0  0  0  0  0  0  0  0  0
   -5.0150  109.1405   14.4615 C   0  0  0  0  0  0  0  0  0  0  0  0
   -5.2519  110.2795   15.3827 C   0  0  0  0  0  0  0  0  0  0  0  0
   -6.3194  110.2932   16.0531 O   0  0  0  0  0  0  0  0  0  0  0  0
   -4.3470  111.3515   15.5497 N   0  0  0  0  0  0  0  0  0  0  0  0
   -2.8533  106.1325   17.8779 O   0  0  0  0  0  0  0  0  0  0  0  0
   -4.1855  103.5510   17.1899 H   0  0  0  0  0  0  0  0  0  0  0  0
   -3.9747   91.2119    6.4083 H   0  0  0  0  0  0  0  0  0  0  0  0
  1  2  1  0
  1108  1  0
  1114  1  0
  2  3  1  0
  2114  1  1
  3  4  2  0
  3  5  1  0
  5  6  1  0
  6  7  1  0
  6  9  1  1
  7  8  2  0
  7 16  1  0
  9 10  1  0
 10 11  1  0
 11 12  1  0
 12 13  1  0
 13 14  2  0
 13 15  1  0
 17 16  1  6
 17 18  1  0
 17 20  1  0
 18 19  2  0
 18 22  1  0
 20 21  1  0
 21 87  1  0
 22 23  1  0
 23 24  1  0
 23 26  1  1
 24 25  2  0
 24 34  1  0
 26 27  1  0
 27 28  2  0
 27 29  1  0
 28 30  1  0
 29 31  2  0
 30 32  2  0
 31 32  1  0
 32 33  1  0
 34 35  1  0
 35 36  1  0
 35 38  1  1
 36 37  2  0
 36 43  1  0
 38 39  1  0
 39 40  1  0
 40 41  1  0
 41 42  1  0
 43 44  1  0
 44 45  1  0
 44 47  1  6
 45 46  2  0
 45 49  1  0
 47 48  1  0
 49 50  1  0
 50 51  1  0
 50 53  1  1
 51 52  2  0
 51 60  1  0
 53 54  1  0
 54 55  1  0
 55 56  1  0
 56 57  1  0
 57 58  2  0
 57 59  1  0
 60 61  1  0
 60 66  1  0
 61 62  1  0
 61 64  1  6
 62 63  2  0
 62 67  1  0
 64 65  1  0
 65 66  1  0
 67 68  1  0
 67 73  1  0
 68 69  1  0
 68 71  1  6
 69 70  2  0
 69 74  1  0
 71 72  1  0
 72 73  1  0
 75 74  1  6
 75 76  1  0
 75 78  1  0
 76 77  2  0
 76 82  1  0
 78 79  1  0
 78 80  1  6
 79 81  1  0
 83 82  1  6
 83 84  1  0
 83 86  1  0
 84 85  2  0
 84 88  1  0
 86 87  1  0
 88 89  1  0
 89 90  1  0
 89 92  1  1
 90 91  2  0
 90 99  1  0
 92 93  1  0
 93 94  2  0
 93 95  1  0
 94 96  1  0
 95 97  2  0
 96 98  2  0
 97 98  1  0
 99100  1  0
 99105  1  0
100101  1  0
100103  1  1
101102  2  0
101106  1  0
103104  1  0
104105  1  0
106107  1  0
107108  1  0
107110  1  1
108109  2  0
110111  1  0
111112  2  0
111113  1  0
 14115  1  0
 58116  1  0
M  CHG  1  42   1
M  END
$$$$
