
     RDKit          3D

116123  0  0  0  0  0  0  0  0999 V2000
  -13.3081   99.8203    6.5362 N   0  0  0  0  0  0  0  0  0  0  0  0
  -12.8177   98.5397    6.3999 C   0  0  2  0  0  0  0  0  0  0  0  0
  -11.9424   98.1474    7.5336 C   0  0  0  0  0  0  0  0  0  0  0  0
  -12.6170   97.7183    8.5454 O   0  0  0  0  0  0  0  0  0  0  0  0
  -10.5437   98.2047    7.5843 N   0  0  0  0  0  0  0  0  0  0  0  0
   -9.5822   97.6695    6.6566 C   0  0  2  0  0  0  0  0  0  0  0  0
   -8.7582   98.8076    6.1909 C   0  0  0  0  0  0  0  0  0  0  0  0
   -9.1728   99.4121    5.1493 O   0  0  0  0  0  0  0  0  0  0  0  0
  -10.1457   96.9031    5.5088 C   0  0  0  0  0  0  0  0  0  0  0  0
  -10.1997   95.4138    5.7440 C   0  0  0  0  0  0  0  0  0  0  0  0
   -9.2142   95.1195    6.8613 C   0  0  0  0  0  0  0  0  0  0  0  0
   -9.8437   94.5020    8.0009 N   0  0  0  0  0  0  0  0  0  0  0  0
   -9.1772   93.5920    8.8742 C   0  0  0  0  0  0  0  0  0  0  0  0
   -9.6277   93.5298   10.1001 N   0  0  0  0  0  0  0  0  0  0  0  0
   -8.0854   92.7955    8.4460 N   0  0  0  0  0  0  0  0  0  0  0  0
   -7.5645   99.2744    6.7992 N   0  0  0  0  0  0  0  0  0  0  0  0
   -6.4333   98.4574    7.1905 C   0  0  2  0  0  0  0  0  0  0  0  0
   -6.5838   97.9612    8.5816 C   0  0  0  0  0  0  0  0  0  0  0  0
   -7.5428   98.4876    9.2606 O   0  0  0  0  0  0  0  0  0  0  0  0
   -5.1907   99.3735    7.1037 C   0  0  0  0  0  0  0  0  0  0  0  0
   -5.5786  100.9284    6.2888 S   0  0  0  0  0  0  0  0  0  0  0  0
   -5.8195   97.0099    9.2279 N   0  0  0  0  0  0  0  0  0  0  0  0
   -5.5416   95.6271    8.8641 C   0  0  2  0  0  0  0  0  0  0  0  0
   -4.2240   95.5150    8.1988 C   0  0  0  0  0  0  0  0  0  0  0  0
   -4.2149   95.8346    6.9561 O   0  0  0  0  0  0  0  0  0  0  0  0
   -6.6631   94.9676    8.1314 C   0  0  0  0  0  0  0  0  0  0  0  0
   -7.1128   95.6283    6.9028 C   0  0  0  0  0  0  0  0  0  0  0  0
   -8.2670   96.3769    6.8953 C   0  0  0  0  0  0  0  0  0  0  0  0
   -6.3822   95.5337    5.7502 C   0  0  0  0  0  0  0  0  0  0  0  0
   -8.6721   97.0180    5.7383 C   0  0  0  0  0  0  0  0  0  0  0  0
   -6.7942   96.1850    4.5761 C   0  0  0  0  0  0  0  0  0  0  0  0
   -7.9394   96.9220    4.5869 C   0  0  0  0  0  0  0  0  0  0  0  0
   -8.3434   97.5684    3.4148 O   0  0  0  0  0  0  0  0  0  0  0  0
   -3.0175   95.1114    8.7610 N   0  0  0  0  0  0  0  0  0  0  0  0
   -2.8614   94.2649    9.9569 C   0  0  2  0  0  0  0  0  0  0  0  0
   -1.5054   94.4804   10.5127 C   0  0  0  0  0  0  0  0  0  0  0  0
   -0.6949   93.4859   10.3503 O   0  0  0  0  0  0  0  0  0  0  0  0
   -3.0289   92.8482    9.4153 C   0  0  0  0  0  0  0  0  0  0  0  0
   -4.4075   92.2976    9.5284 C   0  0  0  0  0  0  0  0  0  0  0  0
   -4.3851   90.8606    9.9967 C   0  0  0  0  0  0  0  0  0  0  0  0
   -3.8724   89.9855    8.8990 C   0  0  0  0  0  0  0  0  0  0  0  0
   -2.4590   89.7336    9.0338 N   0  0  0  0  0  4  0  0  0  0  0  0
   -0.9794   95.5764   11.1709 N   0  0  0  0  0  0  0  0  0  0  0  0
   -1.3421   96.2056   12.4182 C   0  0  2  0  0  0  0  0  0  0  0  0
   -0.1181   96.3184   13.2906 C   0  0  0  0  0  0  0  0  0  0  0  0
    0.7871   95.4488   13.0214 O   0  0  0  0  0  0  0  0  0  0  0  0
   -2.4453   95.4847   13.1696 C   0  0  0  0  0  0  0  0  0  0  0  0
   -2.1452   94.1580   13.3885 O   0  0  0  0  0  0  0  0  0  0  0  0
    0.1284   97.2110   14.3027 N   0  0  0  0  0  0  0  0  0  0  0  0
    0.0288   98.6609   14.3431 C   0  0  2  0  0  0  0  0  0  0  0  0
   -1.2632   98.9183   15.0309 C   0  0  0  0  0  0  0  0  0  0  0  0
   -2.3043   98.8037   14.2935 O   0  0  0  0  0  0  0  0  0  0  0  0
    0.1869   99.3280   13.0306 C   0  0  0  0  0  0  0  0  0  0  0  0
    0.5813   98.3021   11.9908 C   0  0  0  0  0  0  0  0  0  0  0  0
    0.5949   96.9028   12.5808 C   0  0  0  0  0  0  0  0  0  0  0  0
    1.2142   96.9252   13.8910 N   0  0  0  0  0  0  0  0  0  0  0  0
    1.5708   95.7368   14.5805 C   0  0  0  0  0  0  0  0  0  0  0  0
    1.5158   95.6848   15.8663 N   0  0  0  0  0  0  0  0  0  0  0  0
    1.9941   94.5784   13.8763 N   0  0  0  0  0  0  0  0  0  0  0  0
   -1.4976   99.2615   16.3590 N   0  0  0  0  0  0  0  0  0  0  0  0
   -1.1150  100.4706   17.0630 C   0  0  2  0  0  0  0  0  0  0  0  0
   -0.5845  101.5596   16.2888 C   0  0  0  0  0  0  0  0  0  0  0  0
    0.6160  101.6355   15.9085 O   0  0  0  0  0  0  0  0  0  0  0  0
   -0.2060   99.8714   18.1137 C   0  0  0  0  0  0  0  0  0  0  0  0
   -1.0142   98.6140   18.4795 C   0  0  0  0  0  0  0  0  0  0  0  0
   -2.1797   98.5734   17.4889 C   0  0  0  0  0  0  0  0  0  0  0  0
   -1.4160  102.6446   15.9011 N   0  0  0  0  0  0  0  0  0  0  0  0
   -2.7966  102.4478   15.4179 C   0  0  2  0  0  0  0  0  0  0  0  0
   -2.8031  102.5368   13.9535 C   0  0  0  0  0  0  0  0  0  0  0  0
   -1.6271  102.3275   13.4431 O   0  0  0  0  0  0  0  0  0  0  0  0
   -3.5597  103.4269   16.1981 C   0  0  0  0  0  0  0  0  0  0  0  0
   -2.5456  104.4759   16.6254 C   0  0  0  0  0  0  0  0  0  0  0  0
   -1.2765  104.1115   15.8332 C   0  0  0  0  0  0  0  0  0  0  0  0
   -3.7959  102.7906   13.0248 N   0  0  0  0  0  0  0  0  0  0  0  0
   -4.5490  103.9503   12.6410 C   0  0  2  0  0  0  0  0  0  0  0  0
   -4.5148  104.0060   11.1254 C   0  0  0  0  0  0  0  0  0  0  0  0
   -3.3197  103.9722   10.6615 O   0  0  0  0  0  0  0  0  0  0  0  0
   -3.9769  105.2808   13.0561 C   0  0  2  0  0  0  0  0  0  0  0  0
   -4.4315  105.5429   14.5049 C   0  0  0  0  0  0  0  0  0  0  0  0
   -4.5632  106.4485   12.2849 C   0  0  0  0  0  0  0  0  0  0  0  0
   -5.8140  105.0188   14.7362 C   0  0  0  0  0  0  0  0  0  0  0  0
   -5.6018  104.0847   10.2706 N   0  0  0  0  0  0  0  0  0  0  0  0
   -6.7318  103.2152   10.1034 C   0  0  2  0  0  0  0  0  0  0  0  0
   -7.3244  102.6782   11.3375 C   0  0  0  0  0  0  0  0  0  0  0  0
   -6.7440  101.6180   11.7900 O   0  0  0  0  0  0  0  0  0  0  0  0
   -6.2417  102.0336    9.2433 C   0  0  0  0  0  0  0  0  0  0  0  0
   -5.7280  102.5715    7.5965 S   0  0  0  0  0  0  0  0  0  0  0  0
   -8.3967  103.1411   12.0688 N   0  0  0  0  0  0  0  0  0  0  0  0
   -9.7686  103.4486   11.5733 C   0  0  2  0  0  0  0  0  0  0  0  0
   -9.9034  103.1065   10.1933 C   0  0  0  0  0  0  0  0  0  0  0  0
   -9.4942  101.8113   10.0402 O   0  0  0  0  0  0  0  0  0  0  0  0
  -10.2180  104.6401   12.2682 C   0  0  0  0  0  0  0  0  0  0  0  0
   -9.3479  105.3323   13.2163 C   0  0  0  0  0  0  0  0  0  0  0  0
   -8.8836  104.7757   14.3860 C   0  0  0  0  0  0  0  0  0  0  0  0
   -8.8880  106.6107   12.8894 C   0  0  0  0  0  0  0  0  0  0  0  0
   -8.0049  105.4601   15.1913 C   0  0  0  0  0  0  0  0  0  0  0  0
   -8.0089  107.3077   13.6864 C   0  0  0  0  0  0  0  0  0  0  0  0
   -7.5579  106.7293   14.8547 C   0  0  0  0  0  0  0  0  0  0  0  0
  -10.3017  103.6350    8.9754 N   0  0  0  0  0  0  0  0  0  0  0  0
  -11.4692  104.3813    8.5861 C   0  0  2  0  0  0  0  0  0  0  0  0
  -12.1797  103.7656    7.3990 C   0  0  0  0  0  0  0  0  0  0  0  0
  -12.4000  104.5229    6.3805 O   0  0  0  0  0  0  0  0  0  0  0  0
  -10.7695  105.6397    8.0204 C   0  0  0  0  0  0  0  0  0  0  0  0
   -9.6317  104.9840    7.2224 C   0  0  0  0  0  0  0  0  0  0  0  0
   -9.6279  103.5401    7.6443 C   0  0  0  0  0  0  0  0  0  0  0  0
  -12.6272  102.4569    7.2821 N   0  0  0  0  0  0  0  0  0  0  0  0
  -13.4336  101.6712    8.1899 C   0  0  2  0  0  0  0  0  0  0  0  0
  -14.1004  100.5664    7.3831 C   0  0  0  0  0  0  0  0  0  0  0  0
  -15.3186  100.4383    7.5646 O   0  0  0  0  0  0  0  0  0  0  0  0
  -14.4694  102.4565    8.9402 C   0  0  0  0  0  0  0  0  0  0  0  0
  -15.3624  101.6069    9.7665 C   0  0  0  0  0  0  0  0  0  0  0  0
  -16.3029  102.1636   10.3947 O   0  0  0  0  0  0  0  0  0  0  0  0
  -15.2162  100.2071    9.8897 N   0  0  0  0  0  0  0  0  0  0  0  0
  -12.4530   99.4387    5.4446 O   0  0  0  0  0  0  0  0  0  0  0  0
  -10.6258   93.7629   10.2508 H   0  0  0  0  0  0  0  0  0  0  0  0
    0.8908   95.0468   16.3908 H   0  0  0  0  0  0  0  0  0  0  0  0
  1  2  1  0
  1108  1  0
  1114  1  0
  2  3  1  0
  2114  1  6
  3  4  2  0
  3  5  1  0
  5  6  1  0
  6  7  1  0
  6  9  1  6
  7  8  2  0
  7 16  1  0
  9 10  1  0
 10 11  1  0
 11 12  1  0
 12 13  1  0
 13 14  2  0
 13 15  1  0
 17 16  1  1
 17 18  1  0
 17 20  1  0
 18 19  2  0
 18 22  1  0
 20 21  1  0
 21 87  1  0
 22 23  1  0
 23 24  1  0
 23 26  1  6
 24 25  2  0
 24 34  1  0
 26 27  1  0
 27 28  2  0
 27 29  1  0
 28 30  1  0
 29 31  2  0
 30 32  2  0
 31 32  1  0
 32 33  1  0
 34 35  1  0
 35 36  1  0
 35 38  1  6
 36 37  2  0
 36 43  1  0
 38 39  1  0
 39 40  1  0
 40 41  1  0
 41 42  1  0
 43 44  1  0
 44 45  1  0
 44 47  1  1
 45 46  2  0
 45 49  1  0
 47 48  1  0
 49 50  1  0
 50 51  1  0
 50 53  1  6
 51 52  2  0
 51 60  1  0
 53 54  1  0
 54 55  1  0
 55 56  1  0
 56 57  1  0
 57 58  2  0
 57 59  1  0
 60 61  1  0
 60 66  1  0
 61 62  1  0
 61 64  1  1
 62 63  2  0
 62 67  1  0
 64 65  1  0
 65 66  1  0
 67 68  1  0
 67 73  1  0
 68 69  1  0
 68 71  1  1
 69 70  2  0
 69 74  1  0
 71 72  1  0
 72 73  1  0
 75 74  1  1
 75 76  1  0
 75 78  1  0
 76 77  2  0
 76 82  1  0
 78 79  1  0
 78 80  1  6
 79 81  1  0
 83 82  1  1
 83 84  1  0
 83 86  1  0
 84 85  2  0
 84 88  1  0
 86 87  1  0
 88 89  1  0
 89 90  1  0
 89 92  1  6
 90 91  2  0
 90 99  1  0
 92 93  1  0
 93 94  2  0
 93 95  1  0
 94 96  1  0
 95 97  2  0
 96 98  2  0
 97 98  1  0
 99100  1  0
 99105  1  0
100101  1  0
100103  1  6
101102  2  0
101106  1  0
103104  1  0
104105  1  0
106107  1  0
107108  1  0
107110  1  6
108109  2  0
110111  1  0
111112  2  0
111113  1  0
 14115  1  0
 58116  1  0
M  CHG  1  42   1
M  END
$$$$
