
     RDKit          3D

116123  0  0  0  0  0  0  0  0999 V2000
  -11.2727  100.2297    4.7595 N   0  0  0  0  0  0  0  0  0  0  0  0
  -10.6950   98.9912    4.5830 C   0  0  2  0  0  0  0  0  0  0  0  0
  -10.1923   98.4167    5.8568 C   0  0  0  0  0  0  0  0  0  0  0  0
  -11.1217   97.8228    6.5248 O   0  0  0  0  0  0  0  0  0  0  0  0
   -8.8828   98.4680    6.3518 N   0  0  0  0  0  0  0  0  0  0  0  0
   -7.6542   98.0980    5.6998 C   0  0  2  0  0  0  0  0  0  0  0  0
   -6.7902   99.2999    5.7022 C   0  0  0  0  0  0  0  0  0  0  0  0
   -6.8954  100.0692    4.6926 O   0  0  0  0  0  0  0  0  0  0  0  0
   -7.7931   97.5332    4.3273 C   0  0  0  0  0  0  0  0  0  0  0  0
   -7.9951   96.0382    4.3059 C   0  0  0  0  0  0  0  0  0  0  0  0
   -8.2280   95.6157    5.7458 C   0  0  0  0  0  0  0  0  0  0  0  0
   -7.2129   96.1173    6.6369 N   0  0  0  0  0  0  0  0  0  0  0  0
   -7.3286   96.0938    8.0585 C   0  0  0  0  0  0  0  0  0  0  0  0
   -7.8886   95.0322    8.5770 N   0  0  0  0  0  0  0  0  0  0  0  0
   -6.8656   97.1582    8.8724 N   0  0  0  0  0  0  0  0  0  0  0  0
   -5.8699   99.6611    6.7197 N   0  0  0  0  0  0  0  0  0  0  0  0
   -4.8718   98.7928    7.3115 C   0  0  2  0  0  0  0  0  0  0  0  0
   -5.4170   98.0704    8.4883 C   0  0  0  0  0  0  0  0  0  0  0  0
   -6.5660   98.4735    8.9068 O   0  0  0  0  0  0  0  0  0  0  0  0
   -3.7152   99.7134    7.7647 C   0  0  0  0  0  0  0  0  0  0  0  0
   -3.9171  101.3819    7.1261 S   0  0  0  0  0  0  0  0  0  0  0  0
   -4.8388   97.0262    9.1826 N   0  0  0  0  0  0  0  0  0  0  0  0
   -4.3869   95.7244    8.7103 C   0  0  2  0  0  0  0  0  0  0  0  0
   -2.9242   95.7284    8.4826 C   0  0  0  0  0  0  0  0  0  0  0  0
   -2.5495   96.2515    7.3724 O   0  0  0  0  0  0  0  0  0  0  0  0
   -5.1897   95.1942    7.5683 C   0  0  0  0  0  0  0  0  0  0  0  0
   -4.9782   95.8417    6.2706 C   0  0  0  0  0  0  0  0  0  0  0  0
   -5.8383   95.6039    5.2235 C   0  0  0  0  0  0  0  0  0  0  0  0
   -3.9390   96.7116    6.0840 C   0  0  0  0  0  0  0  0  0  0  0  0
   -5.6466   96.2377    4.0089 C   0  0  0  0  0  0  0  0  0  0  0  0
   -3.7454   97.3547    4.8506 C   0  0  0  0  0  0  0  0  0  0  0  0
   -4.6067   97.1075    3.8251 C   0  0  0  0  0  0  0  0  0  0  0  0
   -4.4086   97.7517    2.6001 O   0  0  0  0  0  0  0  0  0  0  0  0
   -1.9300   95.2392    9.3234 N   0  0  0  0  0  0  0  0  0  0  0  0
   -2.1046   94.2049   10.3581 C   0  0  2  0  0  0  0  0  0  0  0  0
   -1.0003   94.3275   11.3376 C   0  0  0  0  0  0  0  0  0  0  0  0
   -0.1262   93.3761   11.2823 O   0  0  0  0  0  0  0  0  0  0  0  0
   -2.0191   92.8984    9.5743 C   0  0  0  0  0  0  0  0  0  0  0  0
   -2.6887   91.7380   10.2237 C   0  0  0  0  0  0  0  0  0  0  0  0
   -3.7433   92.1951   11.2053 C   0  0  0  0  0  0  0  0  0  0  0  0
   -4.3377   91.0066   11.8892 C   0  0  0  0  0  0  0  0  0  0  0  0
   -5.4342   91.3789   12.7486 N   0  0  0  0  0  4  0  0  0  0  0  0
   -0.7640   95.2991   12.2922 N   0  0  0  0  0  0  0  0  0  0  0  0
   -1.5278   95.7098   13.4459 C   0  0  2  0  0  0  0  0  0  0  0  0
   -0.6408   95.6779   14.6643 C   0  0  0  0  0  0  0  0  0  0  0  0
    0.3494   94.8677   14.5584 O   0  0  0  0  0  0  0  0  0  0  0  0
   -2.7678   94.8707   13.6896 C   0  0  0  0  0  0  0  0  0  0  0  0
   -2.9471   93.9118   12.7167 O   0  0  0  0  0  0  0  0  0  0  0  0
   -0.7680   96.3891   15.8305 N   0  0  0  0  0  0  0  0  0  0  0  0
   -0.9544   97.8116   16.0664 C   0  0  2  0  0  0  0  0  0  0  0  0
   -2.4076   97.9471   16.3462 C   0  0  0  0  0  0  0  0  0  0  0  0
   -3.1623   97.9550   15.3113 O   0  0  0  0  0  0  0  0  0  0  0  0
   -0.4355   98.6892   14.9927 C   0  0  0  0  0  0  0  0  0  0  0  0
    1.0105   99.0304   15.2786 C   0  0  0  0  0  0  0  0  0  0  0  0
    1.6137   99.8465   14.1488 C   0  0  0  0  0  0  0  0  0  0  0  0
    0.5753  100.2482   13.2208 N   0  0  0  0  0  0  0  0  0  0  0  0
    0.3071   99.5289   12.0268 C   0  0  0  0  0  0  0  0  0  0  0  0
   -0.7861   99.7272   11.3751 N   0  0  0  0  0  0  0  0  0  0  0  0
    1.2314   98.5774   11.5196 N   0  0  0  0  0  0  0  0  0  0  0  0
   -3.0589   98.0626   17.5705 N   0  0  0  0  0  0  0  0  0  0  0  0
   -2.9790   99.1378   18.5410 C   0  0  2  0  0  0  0  0  0  0  0  0
   -2.2958  100.3422   18.1546 C   0  0  0  0  0  0  0  0  0  0  0  0
   -1.0426  100.4835   18.1869 O   0  0  0  0  0  0  0  0  0  0  0  0
   -2.4073   98.3732   19.7149 C   0  0  0  0  0  0  0  0  0  0  0  0
   -3.2189   97.0704   19.6051 C   0  0  0  0  0  0  0  0  0  0  0  0
   -4.0178   97.1935   18.3058 C   0  0  0  0  0  0  0  0  0  0  0  0
   -3.0251  101.4748   17.7026 N   0  0  0  0  0  0  0  0  0  0  0  0
   -4.1761  101.3584   16.7863 C   0  0  2  0  0  0  0  0  0  0  0  0
   -3.7351  101.6912   15.4273 C   0  0  0  0  0  0  0  0  0  0  0  0
   -2.4495  101.5731   15.2848 O   0  0  0  0  0  0  0  0  0  0  0  0
   -5.1951  102.1912   17.4326 C   0  0  0  0  0  0  0  0  0  0  0  0
   -4.4214  103.1563   18.3165 C   0  0  0  0  0  0  0  0  0  0  0  0
   -2.9519  102.9328   17.9149 C   0  0  0  0  0  0  0  0  0  0  0  0
   -4.4052  102.0945   14.2866 N   0  0  0  0  0  0  0  0  0  0  0  0
   -5.0653  103.3003   13.8747 C   0  0  2  0  0  0  0  0  0  0  0  0
   -4.5680  103.6091   12.4751 C   0  0  0  0  0  0  0  0  0  0  0  0
   -3.2881  103.6561   12.4099 O   0  0  0  0  0  0  0  0  0  0  0  0
   -4.7229  104.5440   14.6532 C   0  0  2  0  0  0  0  0  0  0  0  0
   -3.2312  104.4529   15.0288 C   0  0  0  0  0  0  0  0  0  0  0  0
   -5.4221  104.6170   15.9977 C   0  0  0  0  0  0  0  0  0  0  0  0
   -2.8397  103.0407   15.3320 C   0  0  0  0  0  0  0  0  0  0  0  0
   -5.3407  103.8271   11.3464 N   0  0  0  0  0  0  0  0  0  0  0  0
   -6.3146  102.9952   10.6981 C   0  0  2  0  0  0  0  0  0  0  0  0
   -7.2289  102.2578   11.5829 C   0  0  0  0  0  0  0  0  0  0  0  0
   -6.7595  101.1382   12.0208 O   0  0  0  0  0  0  0  0  0  0  0  0
   -5.5191  101.9754    9.8594 C   0  0  0  0  0  0  0  0  0  0  0  0
   -4.5524  102.7826    8.5636 S   0  0  0  0  0  0  0  0  0  0  0  0
   -8.4982  102.5892   12.0048 N   0  0  0  0  0  0  0  0  0  0  0  0
   -9.6647  102.9721   11.1594 C   0  0  2  0  0  0  0  0  0  0  0  0
   -9.3482  102.8655    9.7709 C   0  0  0  0  0  0  0  0  0  0  0  0
   -8.8415  101.6152    9.5509 O   0  0  0  0  0  0  0  0  0  0  0  0
  -10.3712  104.0294   11.8578 C   0  0  0  0  0  0  0  0  0  0  0  0
  -10.1729  105.4320   11.4993 C   0  0  0  0  0  0  0  0  0  0  0  0
  -10.7003  106.4905   12.2029 C   0  0  0  0  0  0  0  0  0  0  0  0
   -9.3335  105.7336   10.4236 C   0  0  0  0  0  0  0  0  0  0  0  0
  -10.4068  107.7862   11.8510 C   0  0  0  0  0  0  0  0  0  0  0  0
   -9.0315  107.0259   10.0596 C   0  0  0  0  0  0  0  0  0  0  0  0
   -9.5729  108.0706   10.7797 C   0  0  0  0  0  0  0  0  0  0  0  0
   -9.3793  103.5895    8.5893 N   0  0  0  0  0  0  0  0  0  0  0  0
  -10.4086  104.3876    7.9769 C   0  0  2  0  0  0  0  0  0  0  0  0
  -10.6832  103.9776    6.5453 C   0  0  0  0  0  0  0  0  0  0  0  0
  -10.6195  104.8942    5.6424 O   0  0  0  0  0  0  0  0  0  0  0  0
   -9.6384  105.7246    7.8656 C   0  0  0  0  0  0  0  0  0  0  0  0
   -8.2758  105.2144    7.3714 C   0  0  0  0  0  0  0  0  0  0  0  0
   -8.3235  103.7203    7.5392 C   0  0  0  0  0  0  0  0  0  0  0  0
  -11.0006  102.7059    6.0885 N   0  0  0  0  0  0  0  0  0  0  0  0
  -12.0035  101.7775    6.5615 C   0  0  2  0  0  0  0  0  0  0  0  0
  -12.3274  100.8216    5.4222 C   0  0  0  0  0  0  0  0  0  0  0  0
  -13.5331  100.6621    5.1900 O   0  0  0  0  0  0  0  0  0  0  0  0
  -13.2617  102.4236    7.0634 C   0  0  0  0  0  0  0  0  0  0  0  0
  -14.1472  102.9043    5.9740 C   0  0  0  0  0  0  0  0  0  0  0  0
  -14.9848  102.0985    5.4860 O   0  0  0  0  0  0  0  0  0  0  0  0
  -14.1029  104.2162    5.4515 N   0  0  0  0  0  0  0  0  0  0  0  0
  -10.1030  100.0383    3.9450 O   0  0  0  0  0  0  0  0  0  0  0  0
   -7.7196   94.8504    9.5828 H   0  0  0  0  0  0  0  0  0  0  0  0
   -1.4656   98.9790   11.1488 H   0  0  0  0  0  0  0  0  0  0  0  0
  1  2  1  0
  1108  1  0
  1114  1  0
  2  3  1  0
  2114  1  6
  3  4  2  0
  3  5  1  0
  5  6  1  0
  6  7  1  0
  6  9  1  6
  7  8  2  0
  7 16  1  0
  9 10  1  0
 10 11  1  0
 11 12  1  0
 12 13  1  0
 13 14  2  0
 13 15  1  0
 17 16  1  1
 17 18  1  0
 17 20  1  0
 18 19  2  0
 18 22  1  0
 20 21  1  0
 21 87  1  0
 22 23  1  0
 23 24  1  0
 23 26  1  6
 24 25  2  0
 24 34  1  0
 26 27  1  0
 27 28  2  0
 27 29  1  0
 28 30  1  0
 29 31  2  0
 30 32  2  0
 31 32  1  0
 32 33  1  0
 34 35  1  0
 35 36  1  0
 35 38  1  6
 36 37  2  0
 36 43  1  0
 38 39  1  0
 39 40  1  0
 40 41  1  0
 41 42  1  0
 43 44  1  0
 44 45  1  0
 44 47  1  1
 45 46  2  0
 45 49  1  0
 47 48  1  0
 49 50  1  0
 50 51  1  0
 50 53  1  6
 51 52  2  0
 51 60  1  0
 53 54  1  0
 54 55  1  0
 55 56  1  0
 56 57  1  0
 57 58  2  0
 57 59  1  0
 60 61  1  0
 60 66  1  0
 61 62  1  0
 61 64  1  1
 62 63  2  0
 62 67  1  0
 64 65  1  0
 65 66  1  0
 67 68  1  0
 67 73  1  0
 68 69  1  0
 68 71  1  1
 69 70  2  0
 69 74  1  0
 71 72  1  0
 72 73  1  0
 75 74  1  1
 75 76  1  0
 75 78  1  0
 76 77  2  0
 76 82  1  0
 78 79  1  0
 78 80  1  1
 79 81  1  0
 83 82  1  1
 83 84  1  0
 83 86  1  0
 84 85  2  0
 84 88  1  0
 86 87  1  0
 88 89  1  0
 89 90  1  0
 89 92  1  6
 90 91  2  0
 90 99  1  0
 92 93  1  0
 93 94  2  0
 93 95  1  0
 94 96  1  0
 95 97  2  0
 96 98  2  0
 97 98  1  0
 99100  1  0
 99105  1  0
100101  1  0
100103  1  6
101102  2  0
101106  1  0
103104  1  0
104105  1  0
106107  1  0
107108  1  0
107110  1  6
108109  2  0
110111  1  0
111112  2  0
111113  1  0
 14115  1  0
 58116  1  0
M  CHG  1  42   1
M  END
$$$$
