
     RDKit          3D

 41 45  0  0  0  0  0  0  0  0999 V2000
   -1.2403  -11.2084   -2.5650 C   0  0  0  0  0  0  0  0  0  0  0  0
   -0.6319  -10.4123   -1.4009 C   0  0  1  0  0  0  0  0  0  0  0  0
   -0.9905  -11.2352   -0.1560 C   0  0  0  0  0  0  0  0  0  0  0  0
   -0.6023  -12.5966   -0.4771 N   0  0  0  0  0  0  0  0  0  0  0  0
   -1.4873  -13.6670   -0.2454 C   0  0  0  0  0  0  0  0  0  0  0  0
   -2.7220  -13.4956   -0.4039 O   0  0  0  0  0  0  0  0  0  0  0  0
   -1.0101  -15.0121    0.1859 C   0  0  0  0  0  0  0  0  0  0  0  0
   -0.5699  -15.8252   -0.9952 C   0  0  0  0  0  0  0  0  0  0  0  0
    0.7269  -12.7875   -1.0400 C   0  0  0  0  0  0  0  0  0  0  0  0
    1.5400  -11.5112   -1.0012 C   0  0  0  0  0  0  0  0  0  0  0  0
    0.8118  -10.3727   -1.5268 N   0  0  0  0  0  0  0  0  0  0  0  0
    1.3947   -9.2459   -2.1409 C   0  0  0  0  0  0  0  0  0  0  0  0
    0.6634   -8.3384   -2.8376 N   0  0  0  0  0  0  0  0  0  0  0  0
    1.2118   -7.2514   -3.4012 C   0  0  0  0  0  0  0  0  0  0  0  0
    0.3887   -6.4851   -4.0284 O   0  0  0  0  0  0  0  0  0  0  0  0
    2.5147   -6.9861   -3.3166 N   0  0  0  0  0  0  0  0  0  0  0  0
    3.0734   -5.8498   -3.9097 C   0  0  0  0  0  0  0  0  0  0  0  0
    3.6815   -6.0061   -5.1427 C   0  0  0  0  0  0  0  0  0  0  0  0
    3.7584   -7.3138   -5.8408 C   0  0  0  0  0  0  0  0  0  0  0  0
    4.2172   -4.8541   -5.6865 C   0  0  0  0  0  0  0  0  0  0  0  0
    4.1525   -3.6297   -5.0478 C   0  0  0  0  0  0  0  0  0  0  0  0
    3.5386   -3.5818   -3.8493 N   0  0  0  0  0  0  0  0  0  0  0  0
    2.9878   -4.6458   -3.2394 C   0  0  0  0  0  0  0  0  0  0  0  0
    2.3338   -4.4840   -1.9156 C   0  0  1  0  0  0  0  0  0  0  0  0
    3.2619   -3.6119   -1.0786 C   0  0  0  0  0  0  0  0  0  0  0  0
    1.0608   -3.6590   -2.0225 C   0  0  0  0  0  0  0  0  0  0  0  0
    3.3049   -7.8419   -2.6413 C   0  0  0  0  0  0  0  0  0  0  0  0
    4.6554   -7.6155   -2.5322 N   0  0  0  0  0  0  0  0  0  0  0  0
    2.7686   -8.9633   -2.0545 C   0  0  0  0  0  0  0  0  0  0  0  0
    3.5605   -9.8527   -1.3682 C   0  0  0  0  0  0  0  0  0  0  0  0
    4.9005   -9.6062   -1.2735 C   0  0  0  0  0  0  0  0  0  0  0  0
    5.6684  -10.5014   -0.5875 F   0  0  0  0  0  0  0  0  0  0  0  0
    5.4284   -8.4764   -1.8657 C   0  0  0  0  0  0  0  0  0  0  0  0
    6.8647   -8.2591   -1.7349 C   0  0  0  0  0  0  0  0  0  0  0  0
    7.4547   -8.1989   -0.4905 C   0  0  0  0  0  0  0  0  0  0  0  0
    6.6745   -8.3459    0.6039 F   0  0  0  0  0  0  0  0  0  0  0  0
    8.8144   -7.9918   -0.4127 C   0  0  0  0  0  0  0  0  0  0  0  0
    9.6026   -7.8432   -1.5358 C   0  0  0  0  0  0  0  0  0  0  0  0
    9.0270   -7.9011   -2.7888 C   0  0  0  0  0  0  0  0  0  0  0  0
    7.6663   -8.1087   -2.8537 C   0  0  0  0  0  0  0  0  0  0  0  0
    7.0379   -8.1752   -4.0910 O   0  0  0  0  0  0  0  0  0  0  0  0
  2  1  1  6
  2  3  1  0
  2 11  1  0
  3  4  1  0
  4  5  1  0
  4  9  1  0
  5  6  2  0
  5  7  1  0
  7  8  1  0
  9 10  1  0
 10 11  1  0
 11 12  1  0
 12 13  2  0
 12 29  1  0
 13 14  1  0
 14 15  2  0
 14 16  1  0
 16 17  1  0
 16 27  1  0
 17 18  2  0
 17 23  1  0
 18 19  1  0
 18 20  1  0
 20 21  2  0
 21 22  1  0
 22 23  2  0
 23 24  1  0
 24 25  1  1
 24 26  1  0
 27 28  1  0
 27 29  2  0
 28 33  2  0
 29 30  1  0
 30 31  2  0
 31 32  1  0
 31 33  1  0
 33 34  1  0
 34 35  2  0
 34 40  1  0
 35 36  1  0
 35 37  1  0
 37 38  2  0
 38 39  1  0
 39 40  2  0
 40 41  1  0
M  END
$$$$
