
     RDKit          3D

 41 45  0  0  0  0  0  0  0  0999 V2000
    1.2325  -12.0925    0.6415 C   0  0  0  0  0  0  0  0  0  0  0  0
    1.8017  -12.1609   -0.7834 C   0  0  1  0  0  0  0  0  0  0  0  0
    1.7695  -13.6561   -1.1286 C   0  0  0  0  0  0  0  0  0  0  0  0
    0.4291  -14.0953   -0.7857 N   0  0  0  0  0  0  0  0  0  0  0  0
    0.2312  -15.2616   -0.0220 C   0  0  0  0  0  0  0  0  0  0  0  0
    1.2092  -15.7950    0.5593 O   0  0  0  0  0  0  0  0  0  0  0  0
   -1.1102  -15.8957    0.1252 C   0  0  0  0  0  0  0  0  0  0  0  0
   -1.2971  -16.9879   -0.8858 C   0  0  0  0  0  0  0  0  0  0  0  0
   -0.6755  -13.2779   -1.2672 C   0  0  0  0  0  0  0  0  0  0  0  0
   -0.2019  -12.2026   -2.2216 C   0  0  0  0  0  0  0  0  0  0  0  0
    0.9281  -11.4572   -1.7018 N   0  0  0  0  0  0  0  0  0  0  0  0
    1.2371  -10.1193   -2.0195 C   0  0  0  0  0  0  0  0  0  0  0  0
    0.2882   -9.2243   -2.3970 N   0  0  0  0  0  0  0  0  0  0  0  0
    0.5758   -7.9437   -2.6749 C   0  0  0  0  0  0  0  0  0  0  0  0
   -0.4309   -7.2182   -3.0186 O   0  0  0  0  0  0  0  0  0  0  0  0
    1.8150   -7.4599   -2.6000 N   0  0  0  0  0  0  0  0  0  0  0  0
    2.1009   -6.1230   -2.8935 C   0  0  0  0  0  0  0  0  0  0  0  0
    2.5682   -5.8334   -4.1633 C   0  0  0  0  0  0  0  0  0  0  0  0
    2.7716   -6.8745   -5.2016 C   0  0  0  0  0  0  0  0  0  0  0  0
    2.8352   -4.4989   -4.4035 C   0  0  0  0  0  0  0  0  0  0  0  0
    2.6500   -3.5188   -3.4462 C   0  0  0  0  0  0  0  0  0  0  0  0
    2.1906   -3.9031   -2.2392 N   0  0  0  0  0  0  0  0  0  0  0  0
    1.9026   -5.1744   -1.9101 C   0  0  0  0  0  0  0  0  0  0  0  0
    1.4008   -5.4913   -0.5484 C   0  0  1  0  0  0  0  0  0  0  0  0
    2.3670   -4.8363    0.4316 C   0  0  0  0  0  0  0  0  0  0  0  0
    0.0767   -4.7974   -0.2693 C   0  0  0  0  0  0  0  0  0  0  0  0
    2.8102   -8.2888   -2.2326 C   0  0  0  0  0  0  0  0  0  0  0  0
    4.1053   -7.8388   -2.1476 N   0  0  0  0  0  0  0  0  0  0  0  0
    2.5429   -9.6056   -1.9424 C   0  0  0  0  0  0  0  0  0  0  0  0
    3.5468  -10.4689   -1.5737 C   0  0  0  0  0  0  0  0  0  0  0  0
    4.8265   -9.9982   -1.4965 C   0  0  0  0  0  0  0  0  0  0  0  0
    5.8080  -10.8716   -1.1282 F   0  0  0  0  0  0  0  0  0  0  0  0
    5.0836   -8.6737   -1.7890 C   0  0  0  0  0  0  0  0  0  0  0  0
    6.4667   -8.2212   -1.6909 C   0  0  0  0  0  0  0  0  0  0  0  0
    6.9265   -7.6144   -0.5417 C   0  0  0  0  0  0  0  0  0  0  0  0
    6.0693   -7.4489    0.4907 F   0  0  0  0  0  0  0  0  0  0  0  0
    8.2399   -7.2019   -0.4918 C   0  0  0  0  0  0  0  0  0  0  0  0
    9.1076   -7.3756   -1.5510 C   0  0  0  0  0  0  0  0  0  0  0  0
    8.6625   -7.9814   -2.7084 C   0  0  0  0  0  0  0  0  0  0  0  0
    7.3469   -8.3896   -2.7462 C   0  0  0  0  0  0  0  0  0  0  0  0
    6.8491   -9.0049   -3.8881 O   0  0  0  0  0  0  0  0  0  0  0  0
  2  1  1  1
  2  3  1  0
  2 11  1  0
  3  4  1  0
  4  5  1  0
  4  9  1  0
  5  6  2  0
  5  7  1  0
  7  8  1  0
  9 10  1  0
 10 11  1  0
 11 12  1  0
 12 13  2  0
 12 29  1  0
 13 14  1  0
 14 15  2  0
 14 16  1  0
 16 17  1  0
 16 27  1  0
 17 18  2  0
 17 23  1  0
 18 19  1  0
 18 20  1  0
 20 21  2  0
 21 22  1  0
 22 23  2  0
 23 24  1  0
 24 25  1  1
 24 26  1  0
 27 28  1  0
 27 29  2  0
 28 33  2  0
 29 30  1  0
 30 31  2  0
 31 32  1  0
 31 33  1  0
 33 34  1  0
 34 35  2  0
 34 40  1  0
 35 36  1  0
 35 37  1  0
 37 38  2  0
 38 39  1  0
 39 40  2  0
 40 41  1  0
M  END
$$$$
