
     RDKit          3D

 41 45  0  0  0  0  0  0  0  0999 V2000
   -2.1610   -5.8321   -2.5053 C   0  0  0  0  0  0  0  0  0  0  0  0
   -1.0553   -4.7661   -2.5082 C   0  0  1  0  0  0  0  0  0  0  0  0
   -1.7465   -3.5074   -1.9664 C   0  0  0  0  0  0  0  0  0  0  0  0
   -2.4310   -3.9400   -0.7616 N   0  0  0  0  0  0  0  0  0  0  0  0
   -3.7778   -3.5940   -0.5398 C   0  0  0  0  0  0  0  0  0  0  0  0
   -4.6274   -3.8007   -1.4423 O   0  0  0  0  0  0  0  0  0  0  0  0
   -4.2402   -2.9846    0.7400 C   0  0  0  0  0  0  0  0  0  0  0  0
   -5.5189   -3.6189    1.2008 C   0  0  0  0  0  0  0  0  0  0  0  0
   -1.6609   -4.7350    0.1845 C   0  0  0  0  0  0  0  0  0  0  0  0
   -0.1970   -4.7949   -0.1959 C   0  0  0  0  0  0  0  0  0  0  0  0
    0.0009   -5.1432   -1.5895 N   0  0  0  0  0  0  0  0  0  0  0  0
    1.1280   -5.8100   -2.1105 C   0  0  0  0  0  0  0  0  0  0  0  0
    1.3914   -5.8608   -3.4416 N   0  0  0  0  0  0  0  0  0  0  0  0
    2.4772   -6.4727   -3.9383 C   0  0  0  0  0  0  0  0  0  0  0  0
    2.5884   -6.4359   -5.2205 O   0  0  0  0  0  0  0  0  0  0  0  0
    3.3743   -7.0747   -3.1585 N   0  0  0  0  0  0  0  0  0  0  0  0
    4.5012   -7.7097   -3.6896 C   0  0  0  0  0  0  0  0  0  0  0  0
    4.3876   -9.0513   -4.0086 C   0  0  0  0  0  0  0  0  0  0  0  0
    3.1345   -9.8215   -3.8091 C   0  0  0  0  0  0  0  0  0  0  0  0
    5.5279   -9.6321   -4.5303 C   0  0  0  0  0  0  0  0  0  0  0  0
    6.7015   -8.9269   -4.7219 C   0  0  0  0  0  0  0  0  0  0  0  0
    6.7104   -7.6238   -4.3793 N   0  0  0  0  0  0  0  0  0  0  0  0
    5.6539   -6.9704   -3.8654 C   0  0  0  0  0  0  0  0  0  0  0  0
    5.7700   -5.5302   -3.5207 C   0  0  1  0  0  0  0  0  0  0  0  0
    6.8006   -5.4352   -2.4019 C   0  0  0  0  0  0  0  0  0  0  0  0
    6.3953   -4.7361   -4.6570 C   0  0  0  0  0  0  0  0  0  0  0  0
    3.1802   -7.0664   -1.8263 C   0  0  0  0  0  0  0  0  0  0  0  0
    4.0732   -7.6795   -0.9814 N   0  0  0  0  0  0  0  0  0  0  0  0
    2.0759   -6.4467   -1.2913 C   0  0  0  0  0  0  0  0  0  0  0  0
    1.8564   -6.4350    0.0654 C   0  0  0  0  0  0  0  0  0  0  0  0
    2.7583   -7.0514    0.8851 C   0  0  0  0  0  0  0  0  0  0  0  0
    2.5218   -7.0278    2.2287 F   0  0  0  0  0  0  0  0  0  0  0  0
    3.8644   -7.6698    0.3373 C   0  0  0  0  0  0  0  0  0  0  0  0
    4.7971   -8.3130    1.2559 C   0  0  0  0  0  0  0  0  0  0  0  0
    5.9613   -7.6779    1.6324 C   0  0  0  0  0  0  0  0  0  0  0  0
    6.2187   -6.4481    1.1331 F   0  0  0  0  0  0  0  0  0  0  0  0
    6.8143   -8.3216    2.5017 C   0  0  0  0  0  0  0  0  0  0  0  0
    6.5425   -9.5771    3.0064 C   0  0  0  0  0  0  0  0  0  0  0  0
    5.3812  -10.2260    2.6391 C   0  0  0  0  0  0  0  0  0  0  0  0
    4.5361   -9.5721    1.7691 C   0  0  0  0  0  0  0  0  0  0  0  0
    3.3539  -10.1818    1.3681 O   0  0  0  0  0  0  0  0  0  0  0  0
  2  1  1  1
  2  3  1  0
  2 11  1  0
  3  4  1  0
  4  5  1  0
  4  9  1  0
  5  6  2  0
  5  7  1  0
  7  8  1  0
  9 10  1  0
 10 11  1  0
 11 12  1  0
 12 13  2  0
 12 29  1  0
 13 14  1  0
 14 15  2  0
 14 16  1  0
 16 17  1  0
 16 27  1  0
 17 18  2  0
 17 23  1  0
 18 19  1  0
 18 20  1  0
 20 21  2  0
 21 22  1  0
 22 23  2  0
 23 24  1  0
 24 25  1  1
 24 26  1  0
 27 28  1  0
 27 29  2  0
 28 33  2  0
 29 30  1  0
 30 31  2  0
 31 32  1  0
 31 33  1  0
 33 34  1  0
 34 35  2  0
 34 40  1  0
 35 36  1  0
 35 37  1  0
 37 38  2  0
 38 39  1  0
 39 40  2  0
 40 41  1  0
M  END
$$$$
