
     RDKit          3D

 41 45  0  0  0  0  0  0  0  0999 V2000
   -0.9478   -4.4587   -2.5839 C   0  0  0  0  0  0  0  0  0  0  0  0
   -0.6216   -5.0743   -1.2151 C   0  0  1  0  0  0  0  0  0  0  0  0
   -1.7166   -4.5290   -0.2882 C   0  0  0  0  0  0  0  0  0  0  0  0
   -2.9632   -4.7700   -0.9919 N   0  0  0  0  0  0  0  0  0  0  0  0
   -3.9213   -3.7465   -1.1222 C   0  0  0  0  0  0  0  0  0  0  0  0
   -4.9125   -3.9177   -1.8753 O   0  0  0  0  0  0  0  0  0  0  0  0
   -3.8037   -2.4518   -0.3921 C   0  0  0  0  0  0  0  0  0  0  0  0
   -4.9253   -2.2904    0.5906 C   0  0  0  0  0  0  0  0  0  0  0  0
   -3.1617   -6.1031   -1.5431 C   0  0  0  0  0  0  0  0  0  0  0  0
   -2.0786   -7.0610   -1.0953 C   0  0  0  0  0  0  0  0  0  0  0  0
   -0.7466   -6.5173   -1.2767 N   0  0  0  0  0  0  0  0  0  0  0  0
    0.4192   -7.2762   -1.5035 C   0  0  0  0  0  0  0  0  0  0  0  0
    0.4179   -8.3998   -2.2660 N   0  0  0  0  0  0  0  0  0  0  0  0
    1.5311   -9.1097   -2.5047 C   0  0  0  0  0  0  0  0  0  0  0  0
    1.3691  -10.1500   -3.2460 O   0  0  0  0  0  0  0  0  0  0  0  0
    2.7177   -8.7611   -2.0091 N   0  0  0  0  0  0  0  0  0  0  0  0
    3.8699   -9.5107   -2.2651 C   0  0  0  0  0  0  0  0  0  0  0  0
    4.1379  -10.5772   -1.4253 C   0  0  0  0  0  0  0  0  0  0  0  0
    3.2602  -10.9430   -0.2855 C   0  0  0  0  0  0  0  0  0  0  0  0
    5.2869  -11.2862   -1.7205 C   0  0  0  0  0  0  0  0  0  0  0  0
    6.1133  -10.9571   -2.7788 C   0  0  0  0  0  0  0  0  0  0  0  0
    5.7649   -9.9001   -3.5384 N   0  0  0  0  0  0  0  0  0  0  0  0
    4.6689   -9.1496   -3.3316 C   0  0  0  0  0  0  0  0  0  0  0  0
    4.3762   -8.0032   -4.2297 C   0  0  1  0  0  0  0  0  0  0  0  0
    5.5217   -7.0134   -4.0545 C   0  0  0  0  0  0  0  0  0  0  0  0
    4.4676   -8.4071   -5.6931 C   0  0  0  0  0  0  0  0  0  0  0  0
    2.7976   -7.6574   -1.2422 C   0  0  0  0  0  0  0  0  0  0  0  0
    3.9972   -7.2611   -0.7026 N   0  0  0  0  0  0  0  0  0  0  0  0
    1.6723   -6.9122   -0.9818 C   0  0  0  0  0  0  0  0  0  0  0  0
    1.7326   -5.7873   -0.1944 C   0  0  0  0  0  0  0  0  0  0  0  0
    2.9365   -5.4134    0.3309 C   0  0  0  0  0  0  0  0  0  0  0  0
    2.9744   -4.2935    1.1094 F   0  0  0  0  0  0  0  0  0  0  0  0
    4.0606   -6.1685    0.0622 C   0  0  0  0  0  0  0  0  0  0  0  0
    5.3216   -5.7261    0.6467 C   0  0  0  0  0  0  0  0  0  0  0  0
    6.2734   -5.1003   -0.1297 C   0  0  0  0  0  0  0  0  0  0  0  0
    6.0127   -4.9054   -1.4419 F   0  0  0  0  0  0  0  0  0  0  0  0
    7.4504   -4.6989    0.4629 C   0  0  0  0  0  0  0  0  0  0  0  0
    7.7072   -4.9021    1.8036 C   0  0  0  0  0  0  0  0  0  0  0  0
    6.7644   -5.5271    2.5942 C   0  0  0  0  0  0  0  0  0  0  0  0
    5.5912   -5.9239    1.9902 C   0  0  0  0  0  0  0  0  0  0  0  0
    4.6094   -6.5575    2.7419 O   0  0  0  0  0  0  0  0  0  0  0  0
  2  1  1  6
  2  3  1  0
  2 11  1  0
  3  4  1  0
  4  5  1  0
  4  9  1  0
  5  6  2  0
  5  7  1  0
  7  8  1  0
  9 10  1  0
 10 11  1  0
 11 12  1  0
 12 13  2  0
 12 29  1  0
 13 14  1  0
 14 15  2  0
 14 16  1  0
 16 17  1  0
 16 27  1  0
 17 18  2  0
 17 23  1  0
 18 19  1  0
 18 20  1  0
 20 21  2  0
 21 22  1  0
 22 23  2  0
 23 24  1  0
 24 25  1  6
 24 26  1  0
 27 28  1  0
 27 29  2  0
 28 33  2  0
 29 30  1  0
 30 31  2  0
 31 32  1  0
 31 33  1  0
 33 34  1  0
 34 35  2  0
 34 40  1  0
 35 36  1  0
 35 37  1  0
 37 38  2  0
 38 39  1  0
 39 40  2  0
 40 41  1  0
M  END
$$$$
