
     RDKit          3D

 41 45  0  0  0  0  0  0  0  0999 V2000
   -1.6040   -7.0033   -0.7750 C   0  0  0  0  0  0  0  0  0  0  0  0
   -0.8659   -6.2978   -1.9223 C   0  0  1  0  0  0  0  0  0  0  0  0
   -1.6297   -4.9790   -2.1046 C   0  0  0  0  0  0  0  0  0  0  0  0
   -1.7442   -4.4200   -0.7699 N   0  0  0  0  0  0  0  0  0  0  0  0
   -2.9821   -3.9442   -0.2966 C   0  0  0  0  0  0  0  0  0  0  0  0
   -3.1181   -3.6782    0.9239 O   0  0  0  0  0  0  0  0  0  0  0  0
   -4.1517   -3.7414   -1.1988 C   0  0  0  0  0  0  0  0  0  0  0  0
   -4.4908   -2.2847   -1.3124 C   0  0  0  0  0  0  0  0  0  0  0  0
   -0.5308   -4.3799    0.0341 C   0  0  0  0  0  0  0  0  0  0  0  0
    0.6894   -4.7657   -0.7743 C   0  0  0  0  0  0  0  0  0  0  0  0
    0.4940   -5.9912   -1.5243 N   0  0  0  0  0  0  0  0  0  0  0  0
    1.5131   -6.8930   -1.8912 C   0  0  0  0  0  0  0  0  0  0  0  0
    1.2539   -8.0583   -2.5383 N   0  0  0  0  0  0  0  0  0  0  0  0
    2.2243   -8.9063   -2.9116 C   0  0  0  0  0  0  0  0  0  0  0  0
    1.8206   -9.9691   -3.5161 O   0  0  0  0  0  0  0  0  0  0  0  0
    3.5124   -8.6637   -2.6728 N   0  0  0  0  0  0  0  0  0  0  0  0
    4.5137   -9.5567   -3.0666 C   0  0  0  0  0  0  0  0  0  0  0  0
    4.8211  -10.5933   -2.2031 C   0  0  0  0  0  0  0  0  0  0  0  0
    4.1366  -10.7833   -0.8998 C   0  0  0  0  0  0  0  0  0  0  0  0
    5.8161  -11.4480   -2.6381 C   0  0  0  0  0  0  0  0  0  0  0  0
    6.4616  -11.2834   -3.8495 C   0  0  0  0  0  0  0  0  0  0  0  0
    6.0896  -10.2420   -4.6193 N   0  0  0  0  0  0  0  0  0  0  0  0
    5.1343   -9.3576   -4.2838 C   0  0  0  0  0  0  0  0  0  0  0  0
    4.8002   -8.2426   -5.2067 C   0  0  1  0  0  0  0  0  0  0  0  0
    6.1171   -7.5571   -5.5508 C   0  0  0  0  0  0  0  0  0  0  0  0
    4.3015   -8.7615   -6.5464 C   0  0  0  0  0  0  0  0  0  0  0  0
    3.8473   -7.5269   -2.0339 C   0  0  0  0  0  0  0  0  0  0  0  0
    5.1612   -7.2355   -1.7586 N   0  0  0  0  0  0  0  0  0  0  0  0
    2.8727   -6.6410   -1.6403 C   0  0  0  0  0  0  0  0  0  0  0  0
    3.1944   -5.4795   -0.9796 C   0  0  0  0  0  0  0  0  0  0  0  0
    4.5077   -5.2118   -0.7171 C   0  0  0  0  0  0  0  0  0  0  0  0
    4.8053   -4.0533   -0.0607 F   0  0  0  0  0  0  0  0  0  0  0  0
    5.4784   -6.1079   -1.1178 C   0  0  0  0  0  0  0  0  0  0  0  0
    6.8655   -5.7749   -0.8137 C   0  0  0  0  0  0  0  0  0  0  0  0
    7.5011   -6.3401    0.2711 C   0  0  0  0  0  0  0  0  0  0  0  0
    6.8122   -7.2088    1.0450 F   0  0  0  0  0  0  0  0  0  0  0  0
    8.8116   -5.9975    0.5221 C   0  0  0  0  0  0  0  0  0  0  0  0
    9.5066   -5.1099   -0.2741 C   0  0  0  0  0  0  0  0  0  0  0  0
    8.8844   -4.5356   -1.3638 C   0  0  0  0  0  0  0  0  0  0  0  0
    7.5737   -4.8861   -1.6046 C   0  0  0  0  0  0  0  0  0  0  0  0
    6.9016   -4.3362   -2.6891 O   0  0  0  0  0  0  0  0  0  0  0  0
  2  1  1  1
  2  3  1  0
  2 11  1  0
  3  4  1  0
  4  5  1  0
  4  9  1  0
  5  6  2  0
  5  7  1  0
  7  8  1  0
  9 10  1  0
 10 11  1  0
 11 12  1  0
 12 13  2  0
 12 29  1  0
 13 14  1  0
 14 15  2  0
 14 16  1  0
 16 17  1  0
 16 27  1  0
 17 18  2  0
 17 23  1  0
 18 19  1  0
 18 20  1  0
 20 21  2  0
 21 22  1  0
 22 23  2  0
 23 24  1  0
 24 25  1  6
 24 26  1  0
 27 28  1  0
 27 29  2  0
 28 33  2  0
 29 30  1  0
 30 31  2  0
 31 32  1  0
 31 33  1  0
 33 34  1  0
 34 35  2  0
 34 40  1  0
 35 36  1  0
 35 37  1  0
 37 38  2  0
 38 39  1  0
 39 40  2  0
 40 41  1  0
M  END
$$$$
