
     RDKit          3D

 41 45  0  0  0  0  0  0  0  0999 V2000
   -2.4949  -11.0850   -1.6876 C   0  0  0  0  0  0  0  0  0  0  0  0
   -1.5242  -11.1236   -0.4979 C   0  0  1  0  0  0  0  0  0  0  0  0
   -1.6198  -12.5663    0.0173 C   0  0  0  0  0  0  0  0  0  0  0  0
   -1.4672  -13.4002   -1.1611 N   0  0  0  0  0  0  0  0  0  0  0  0
   -2.3606  -14.4600   -1.4088 C   0  0  0  0  0  0  0  0  0  0  0  0
   -3.4581  -14.5008   -0.7982 O   0  0  0  0  0  0  0  0  0  0  0  0
   -2.0508  -15.5486   -2.3794 C   0  0  0  0  0  0  0  0  0  0  0  0
   -2.1193  -16.8911   -1.7139 C   0  0  0  0  0  0  0  0  0  0  0  0
   -0.3603  -13.0847   -2.0529 C   0  0  0  0  0  0  0  0  0  0  0  0
    0.5561  -12.0366   -1.4587 C   0  0  0  0  0  0  0  0  0  0  0  0
   -0.1689  -10.8864   -0.9545 N   0  0  0  0  0  0  0  0  0  0  0  0
    0.3390   -9.5741   -0.8750 C   0  0  0  0  0  0  0  0  0  0  0  0
   -0.3870   -8.5433   -0.3709 N   0  0  0  0  0  0  0  0  0  0  0  0
    0.1031   -7.2984   -0.2702 C   0  0  0  0  0  0  0  0  0  0  0  0
   -0.7061   -6.4296    0.2281 O   0  0  0  0  0  0  0  0  0  0  0  0
    1.3387   -6.9862   -0.6588 N   0  0  0  0  0  0  0  0  0  0  0  0
    1.8366   -5.6842   -0.5490 C   0  0  0  0  0  0  0  0  0  0  0  0
    2.5735   -5.3751    0.5806 C   0  0  0  0  0  0  0  0  0  0  0  0
    2.8461   -6.3603    1.6568 C   0  0  0  0  0  0  0  0  0  0  0  0
    3.0434   -4.0769    0.6413 C   0  0  0  0  0  0  0  0  0  0  0  0
    2.7975   -3.1490   -0.3536 C   0  0  0  0  0  0  0  0  0  0  0  0
    2.0690   -3.5485   -1.4144 N   0  0  0  0  0  0  0  0  0  0  0  0
    1.5690   -4.7875   -1.5642 C   0  0  0  0  0  0  0  0  0  0  0  0
    0.7770   -5.1250   -2.7746 C   0  0  1  0  0  0  0  0  0  0  0  0
   -0.6202   -4.5600   -2.5484 C   0  0  0  0  0  0  0  0  0  0  0  0
    1.2795   -4.3697   -3.9952 C   0  0  0  0  0  0  0  0  0  0  0  0
    2.1190   -7.9569   -1.1701 C   0  0  0  0  0  0  0  0  0  0  0  0
    3.3976   -7.6831   -1.5911 N   0  0  0  0  0  0  0  0  0  0  0  0
    1.6413   -9.2408   -1.2845 C   0  0  0  0  0  0  0  0  0  0  0  0
    2.4200  -10.2432   -1.8117 C   0  0  0  0  0  0  0  0  0  0  0  0
    3.6879   -9.9465   -2.2235 C   0  0  0  0  0  0  0  0  0  0  0  0
    4.4442  -10.9562   -2.7434 F   0  0  0  0  0  0  0  0  0  0  0  0
    4.1578   -8.6540   -2.1030 C   0  0  0  0  0  0  0  0  0  0  0  0
    5.5186   -8.3898   -2.5570 C   0  0  0  0  0  0  0  0  0  0  0  0
    6.5368   -8.1985   -1.6477 C   0  0  0  0  0  0  0  0  0  0  0  0
    6.2473   -8.2618   -0.3285 F   0  0  0  0  0  0  0  0  0  0  0  0
    7.8071   -7.9513   -2.1198 C   0  0  0  0  0  0  0  0  0  0  0  0
    8.0928   -7.8890   -3.4686 C   0  0  0  0  0  0  0  0  0  0  0  0
    7.0844   -8.0784   -4.3915 C   0  0  0  0  0  0  0  0  0  0  0  0
    5.8181   -8.3249   -3.9071 C   0  0  0  0  0  0  0  0  0  0  0  0
    4.7676   -8.5227   -4.7945 O   0  0  0  0  0  0  0  0  0  0  0  0
  2  1  1  6
  2  3  1  0
  2 11  1  0
  3  4  1  0
  4  5  1  0
  4  9  1  0
  5  6  2  0
  5  7  1  0
  7  8  1  0
  9 10  1  0
 10 11  1  0
 11 12  1  0
 12 13  2  0
 12 29  1  0
 13 14  1  0
 14 15  2  0
 14 16  1  0
 16 17  1  0
 16 27  1  0
 17 18  2  0
 17 23  1  0
 18 19  1  0
 18 20  1  0
 20 21  2  0
 21 22  1  0
 22 23  2  0
 23 24  1  0
 24 25  1  1
 24 26  1  0
 27 28  1  0
 27 29  2  0
 28 33  2  0
 29 30  1  0
 30 31  2  0
 31 32  1  0
 31 33  1  0
 33 34  1  0
 34 35  2  0
 34 40  1  0
 35 36  1  0
 35 37  1  0
 37 38  2  0
 38 39  1  0
 39 40  2  0
 40 41  1  0
M  END
$$$$
