
     RDKit          3D

 41 45  0  0  0  0  0  0  0  0999 V2000
   -1.4990   -4.4502    0.4629 C   0  0  0  0  0  0  0  0  0  0  0  0
   -1.5812   -5.8773   -0.0988 C   0  0  1  0  0  0  0  0  0  0  0  0
   -2.9489   -5.9286   -0.7935 C   0  0  0  0  0  0  0  0  0  0  0  0
   -2.9947   -4.7416   -1.6279 N   0  0  0  0  0  0  0  0  0  0  0  0
   -4.1218   -3.8978   -1.6112 C   0  0  0  0  0  0  0  0  0  0  0  0
   -4.9904   -4.0416   -0.7146 O   0  0  0  0  0  0  0  0  0  0  0  0
   -4.3268   -2.8272   -2.6285 C   0  0  0  0  0  0  0  0  0  0  0  0
   -5.4534   -3.1801   -3.5538 C   0  0  0  0  0  0  0  0  0  0  0  0
   -1.8329   -4.4797   -2.4656 C   0  0  0  0  0  0  0  0  0  0  0  0
   -0.8550   -5.6350   -2.4437 C   0  0  0  0  0  0  0  0  0  0  0  0
   -0.5496   -6.0785   -1.0973 N   0  0  0  0  0  0  0  0  0  0  0  0
    0.6575   -6.6834   -0.6931 C   0  0  0  0  0  0  0  0  0  0  0  0
    0.8359   -7.1860    0.5557 N   0  0  0  0  0  0  0  0  0  0  0  0
    1.9747   -7.7853    0.9351 C   0  0  0  0  0  0  0  0  0  0  0  0
    1.9917   -8.2102    2.1505 O   0  0  0  0  0  0  0  0  0  0  0  0
    3.0122   -7.9292    0.1115 N   0  0  0  0  0  0  0  0  0  0  0  0
    4.1937   -8.5551    0.5204 C   0  0  0  0  0  0  0  0  0  0  0  0
    5.1905   -7.7548    1.0501 C   0  0  0  0  0  0  0  0  0  0  0  0
    5.0486   -6.2844    1.1948 C   0  0  0  0  0  0  0  0  0  0  0  0
    6.3371   -8.4208    1.4394 C   0  0  0  0  0  0  0  0  0  0  0  0
    6.4829   -9.7895    1.3110 C   0  0  0  0  0  0  0  0  0  0  0  0
    5.4538  -10.4806    0.7828 N   0  0  0  0  0  0  0  0  0  0  0  0
    4.2998   -9.9240    0.3752 C   0  0  0  0  0  0  0  0  0  0  0  0
    3.2264  -10.7782   -0.1945 C   0  0  1  0  0  0  0  0  0  0  0  0
    3.9011  -11.7132   -1.1910 C   0  0  0  0  0  0  0  0  0  0  0  0
    2.6513  -11.7192    0.8527 C   0  0  0  0  0  0  0  0  0  0  0  0
    2.9097   -7.4546   -1.1442 C   0  0  0  0  0  0  0  0  0  0  0  0
    3.9545   -7.5727   -2.0283 N   0  0  0  0  0  0  0  0  0  0  0  0
    1.7541   -6.8362   -1.5586 C   0  0  0  0  0  0  0  0  0  0  0  0
    1.6339   -6.3380   -2.8339 C   0  0  0  0  0  0  0  0  0  0  0  0
    2.6864   -6.4672   -3.6947 C   0  0  0  0  0  0  0  0  0  0  0  0
    2.5460   -5.9662   -4.9560 F   0  0  0  0  0  0  0  0  0  0  0  0
    3.8418   -7.0910   -3.2684 C   0  0  0  0  0  0  0  0  0  0  0  0
    4.9360   -7.2037   -4.2264 C   0  0  0  0  0  0  0  0  0  0  0  0
    5.4773   -6.0775   -4.8087 C   0  0  0  0  0  0  0  0  0  0  0  0
    4.9734   -4.8688   -4.4726 F   0  0  0  0  0  0  0  0  0  0  0  0
    6.5093   -6.2295   -5.7085 C   0  0  0  0  0  0  0  0  0  0  0  0
    7.0173   -7.4679   -6.0449 C   0  0  0  0  0  0  0  0  0  0  0  0
    6.4862   -8.6048   -5.4706 C   0  0  0  0  0  0  0  0  0  0  0  0
    5.4544   -8.4400   -4.5722 C   0  0  0  0  0  0  0  0  0  0  0  0
    4.8847   -9.5526   -3.9657 O   0  0  0  0  0  0  0  0  0  0  0  0
  2  1  1  6
  2  3  1  0
  2 11  1  0
  3  4  1  0
  4  5  1  0
  4  9  1  0
  5  6  2  0
  5  7  1  0
  7  8  1  0
  9 10  1  0
 10 11  1  0
 11 12  1  0
 12 13  2  0
 12 29  1  0
 13 14  1  0
 14 15  2  0
 14 16  1  0
 16 17  1  0
 16 27  1  0
 17 18  2  0
 17 23  1  0
 18 19  1  0
 18 20  1  0
 20 21  2  0
 21 22  1  0
 22 23  2  0
 23 24  1  0
 24 25  1  6
 24 26  1  0
 27 28  1  0
 27 29  2  0
 28 33  2  0
 29 30  1  0
 30 31  2  0
 31 32  1  0
 31 33  1  0
 33 34  1  0
 34 35  2  0
 34 40  1  0
 35 36  1  0
 35 37  1  0
 37 38  2  0
 38 39  1  0
 39 40  2  0
 40 41  1  0
M  END
$$$$
