
     RDKit          3D

 41 45  0  0  0  0  0  0  0  0999 V2000
   -1.0780   -7.2576    0.0540 C   0  0  0  0  0  0  0  0  0  0  0  0
   -0.5627   -7.3836   -1.3874 C   0  0  1  0  0  0  0  0  0  0  0  0
   -1.7128   -6.8394   -2.2457 C   0  0  0  0  0  0  0  0  0  0  0  0
   -2.0722   -5.5713   -1.6376 N   0  0  0  0  0  0  0  0  0  0  0  0
   -3.4194   -5.2625   -1.3685 C   0  0  0  0  0  0  0  0  0  0  0  0
   -4.2830   -6.1746   -1.4027 O   0  0  0  0  0  0  0  0  0  0  0  0
   -3.8660   -3.8783   -1.0406 C   0  0  0  0  0  0  0  0  0  0  0  0
   -5.0371   -3.4811   -1.8895 C   0  0  0  0  0  0  0  0  0  0  0  0
   -0.9825   -4.6562   -1.3288 C   0  0  0  0  0  0  0  0  0  0  0  0
    0.3345   -5.1426   -1.8950 C   0  0  0  0  0  0  0  0  0  0  0  0
    0.5959   -6.5330   -1.5770 N   0  0  0  0  0  0  0  0  0  0  0  0
    1.8741   -7.1113   -1.4420 C   0  0  0  0  0  0  0  0  0  0  0  0
    2.0528   -8.4455   -1.2632 N   0  0  0  0  0  0  0  0  0  0  0  0
    3.2693   -9.0019   -1.1602 C   0  0  0  0  0  0  0  0  0  0  0  0
    3.2755  -10.2786   -0.9933 O   0  0  0  0  0  0  0  0  0  0  0  0
    4.3890   -8.2827   -1.2260 N   0  0  0  0  0  0  0  0  0  0  0  0
    5.6506   -8.8755   -1.1162 C   0  0  0  0  0  0  0  0  0  0  0  0
    6.1591   -9.0645    0.1567 C   0  0  0  0  0  0  0  0  0  0  0  0
    5.4238   -8.6664    1.3831 C   0  0  0  0  0  0  0  0  0  0  0  0
    7.4077   -9.6541    0.2116 C   0  0  0  0  0  0  0  0  0  0  0  0
    8.1037  -10.0303   -0.9222 C   0  0  0  0  0  0  0  0  0  0  0  0
    7.5221   -9.8035   -2.1163 N   0  0  0  0  0  0  0  0  0  0  0  0
    6.3131   -9.2368   -2.2725 C   0  0  0  0  0  0  0  0  0  0  0  0
    5.7622   -9.0310   -3.6365 C   0  0  1  0  0  0  0  0  0  0  0  0
    6.9510   -8.7327   -4.5423 C   0  0  0  0  0  0  0  0  0  0  0  0
    5.1894  -10.3204   -4.2041 C   0  0  0  0  0  0  0  0  0  0  0  0
    4.2914   -6.9515   -1.4018 C   0  0  0  0  0  0  0  0  0  0  0  0
    5.4167   -6.1664   -1.4689 N   0  0  0  0  0  0  0  0  0  0  0  0
    3.0572   -6.3560   -1.5101 C   0  0  0  0  0  0  0  0  0  0  0  0
    2.9373   -4.9976   -1.6814 C   0  0  0  0  0  0  0  0  0  0  0  0
    4.0706   -4.2380   -1.7450 C   0  0  0  0  0  0  0  0  0  0  0  0
    3.9293   -2.8917   -1.9159 F   0  0  0  0  0  0  0  0  0  0  0  0
    5.3050   -4.8465   -1.6361 C   0  0  0  0  0  0  0  0  0  0  0  0
    6.4838   -3.9907   -1.7110 C   0  0  0  0  0  0  0  0  0  0  0  0
    6.6169   -2.9050   -0.8720 C   0  0  0  0  0  0  0  0  0  0  0  0
    5.6332   -2.6517    0.0203 F   0  0  0  0  0  0  0  0  0  0  0  0
    7.7461   -2.1230   -0.9766 C   0  0  0  0  0  0  0  0  0  0  0  0
    8.7452   -2.3900   -1.8907 C   0  0  0  0  0  0  0  0  0  0  0  0
    8.6268   -3.4732   -2.7375 C   0  0  0  0  0  0  0  0  0  0  0  0
    7.4929   -4.2478   -2.6233 C   0  0  0  0  0  0  0  0  0  0  0  0
    7.3252   -5.3500   -3.4524 O   0  0  0  0  0  0  0  0  0  0  0  0
  2  1  1  1
  2  3  1  0
  2 11  1  0
  3  4  1  0
  4  5  1  0
  4  9  1  0
  5  6  2  0
  5  7  1  0
  7  8  1  0
  9 10  1  0
 10 11  1  0
 11 12  1  0
 12 13  2  0
 12 29  1  0
 13 14  1  0
 14 15  2  0
 14 16  1  0
 16 17  1  0
 16 27  1  0
 17 18  2  0
 17 23  1  0
 18 19  1  0
 18 20  1  0
 20 21  2  0
 21 22  1  0
 22 23  2  0
 23 24  1  0
 24 25  1  6
 24 26  1  0
 27 28  1  0
 27 29  2  0
 28 33  2  0
 29 30  1  0
 30 31  2  0
 31 32  1  0
 31 33  1  0
 33 34  1  0
 34 35  2  0
 34 40  1  0
 35 36  1  0
 35 37  1  0
 37 38  2  0
 38 39  1  0
 39 40  2  0
 40 41  1  0
M  END
$$$$
