
     RDKit          3D

 41 45  0  0  0  0  0  0  0  0999 V2000
    0.4719   -4.2305   -1.6790 C   0  0  0  0  0  0  0  0  0  0  0  0
    0.6228   -5.5720   -0.9465 C   0  0  1  0  0  0  0  0  0  0  0  0
   -0.5991   -5.6327   -0.0198 C   0  0  0  0  0  0  0  0  0  0  0  0
   -1.7334   -5.3124   -0.8671 N   0  0  0  0  0  0  0  0  0  0  0  0
   -2.6868   -4.3605   -0.4577 C   0  0  0  0  0  0  0  0  0  0  0  0
   -2.5237   -3.7470    0.6267 O   0  0  0  0  0  0  0  0  0  0  0  0
   -3.8969   -4.0487   -1.2711 C   0  0  0  0  0  0  0  0  0  0  0  0
   -5.1420   -4.5054   -0.5705 C   0  0  0  0  0  0  0  0  0  0  0  0
   -1.8268   -6.0176   -2.1376 C   0  0  0  0  0  0  0  0  0  0  0  0
   -0.7941   -7.1192   -2.2437 C   0  0  0  0  0  0  0  0  0  0  0  0
    0.5382   -6.6671   -1.8927 N   0  0  0  0  0  0  0  0  0  0  0  0
    1.7400   -7.2061   -2.3944 C   0  0  0  0  0  0  0  0  0  0  0  0
    1.7742   -8.0154   -3.4842 N   0  0  0  0  0  0  0  0  0  0  0  0
    2.9194   -8.5090   -3.9792 C   0  0  0  0  0  0  0  0  0  0  0  0
    2.7890   -9.2608   -5.0163 O   0  0  0  0  0  0  0  0  0  0  0  0
    4.1052   -8.2390   -3.4348 N   0  0  0  0  0  0  0  0  0  0  0  0
    5.2910   -8.7609   -3.9605 C   0  0  0  0  0  0  0  0  0  0  0  0
    5.8479   -9.8532   -3.3191 C   0  0  0  0  0  0  0  0  0  0  0  0
    5.2397  -10.4751   -2.1164 C   0  0  0  0  0  0  0  0  0  0  0  0
    7.0181  -10.3316   -3.8774 C   0  0  0  0  0  0  0  0  0  0  0  0
    7.5955   -9.7627   -4.9973 C   0  0  0  0  0  0  0  0  0  0  0  0
    6.9754   -8.7013   -5.5491 N   0  0  0  0  0  0  0  0  0  0  0  0
    5.8357   -8.1641   -5.0801 C   0  0  0  0  0  0  0  0  0  0  0  0
    5.2334   -6.9913   -5.7643 C   0  0  1  0  0  0  0  0  0  0  0  0
    6.2377   -5.8524   -5.6345 C   0  0  0  0  0  0  0  0  0  0  0  0
    5.1326   -7.2156   -7.2651 C   0  0  0  0  0  0  0  0  0  0  0  0
    4.1509   -7.4430   -2.3500 C   0  0  0  0  0  0  0  0  0  0  0  0
    5.3487   -7.1413   -1.7488 N   0  0  0  0  0  0  0  0  0  0  0  0
    2.9924   -6.9243   -1.8225 C   0  0  0  0  0  0  0  0  0  0  0  0
    3.0182   -6.1167   -0.7106 C   0  0  0  0  0  0  0  0  0  0  0  0
    4.2212   -5.8311   -0.1305 C   0  0  0  0  0  0  0  0  0  0  0  0
    4.2246   -5.0272    0.9720 F   0  0  0  0  0  0  0  0  0  0  0  0
    5.3786   -6.3565   -0.6691 C   0  0  0  0  0  0  0  0  0  0  0  0
    6.6369   -6.0207   -0.0123 C   0  0  0  0  0  0  0  0  0  0  0  0
    6.9875   -4.7047    0.2013 C   0  0  0  0  0  0  0  0  0  0  0  0
    6.1408   -3.7341   -0.2099 F   0  0  0  0  0  0  0  0  0  0  0  0
    8.1852   -4.4323    0.8249 C   0  0  0  0  0  0  0  0  0  0  0  0
    9.0428   -5.4303    1.2415 C   0  0  0  0  0  0  0  0  0  0  0  0
    8.7062   -6.7526    1.0350 C   0  0  0  0  0  0  0  0  0  0  0  0
    7.5057   -7.0124    0.4103 C   0  0  0  0  0  0  0  0  0  0  0  0
    7.1199   -8.3269    0.1788 O   0  0  0  0  0  0  0  0  0  0  0  0
  2  1  1  6
  2  3  1  0
  2 11  1  0
  3  4  1  0
  4  5  1  0
  4  9  1  0
  5  6  2  0
  5  7  1  0
  7  8  1  0
  9 10  1  0
 10 11  1  0
 11 12  1  0
 12 13  2  0
 12 29  1  0
 13 14  1  0
 14 15  2  0
 14 16  1  0
 16 17  1  0
 16 27  1  0
 17 18  2  0
 17 23  1  0
 18 19  1  0
 18 20  1  0
 20 21  2  0
 21 22  1  0
 22 23  2  0
 23 24  1  0
 24 25  1  6
 24 26  1  0
 27 28  1  0
 27 29  2  0
 28 33  2  0
 29 30  1  0
 30 31  2  0
 31 32  1  0
 31 33  1  0
 33 34  1  0
 34 35  2  0
 34 40  1  0
 35 36  1  0
 35 37  1  0
 37 38  2  0
 38 39  1  0
 39 40  2  0
 40 41  1  0
M  END
$$$$
