
     RDKit          3D

 41 45  0  0  0  0  0  0  0  0999 V2000
    0.5855   -9.3677    0.6077 C   0  0  0  0  0  0  0  0  0  0  0  0
    0.7162   -9.7371   -0.8773 C   0  0  1  0  0  0  0  0  0  0  0  0
   -0.1900  -10.9652   -1.0393 C   0  0  0  0  0  0  0  0  0  0  0  0
   -1.4488  -10.5914   -0.4206 N   0  0  0  0  0  0  0  0  0  0  0  0
   -2.0818  -11.4554    0.4935 C   0  0  0  0  0  0  0  0  0  0  0  0
   -3.1666  -11.1086    1.0246 O   0  0  0  0  0  0  0  0  0  0  0  0
   -1.5077  -12.7817    0.8598 C   0  0  0  0  0  0  0  0  0  0  0  0
   -2.2512  -13.3834    2.0152 C   0  0  0  0  0  0  0  0  0  0  0  0
   -2.0076   -9.2991   -0.7922 C   0  0  0  0  0  0  0  0  0  0  0  0
   -1.2388   -8.6631   -1.9305 C   0  0  0  0  0  0  0  0  0  0  0  0
    0.1934   -8.6667   -1.7036 N   0  0  0  0  0  0  0  0  0  0  0  0
    1.1024   -7.7217   -2.2203 C   0  0  0  0  0  0  0  0  0  0  0  0
    0.6964   -6.6224   -2.9063 N   0  0  0  0  0  0  0  0  0  0  0  0
    1.5580   -5.7080   -3.3768 C   0  0  0  0  0  0  0  0  0  0  0  0
    1.0205   -4.7218   -4.0066 O   0  0  0  0  0  0  0  0  0  0  0  0
    2.8747   -5.8150   -3.2037 N   0  0  0  0  0  0  0  0  0  0  0  0
    3.7616   -4.8548   -3.7003 C   0  0  0  0  0  0  0  0  0  0  0  0
    4.0302   -3.7585   -2.9000 C   0  0  0  0  0  0  0  0  0  0  0  0
    3.4197   -3.5729   -1.5598 C   0  0  0  0  0  0  0  0  0  0  0  0
    4.9126   -2.8394   -3.4353 C   0  0  0  0  0  0  0  0  0  0  0  0
    5.4890   -2.9996   -4.6816 C   0  0  0  0  0  0  0  0  0  0  0  0
    5.1629   -4.1023   -5.3838 N   0  0  0  0  0  0  0  0  0  0  0  0
    4.3159   -5.0517   -4.9494 C   0  0  0  0  0  0  0  0  0  0  0  0
    4.0235   -6.2307   -5.8044 C   0  0  1  0  0  0  0  0  0  0  0  0
    3.5553   -5.6849   -7.1480 C   0  0  0  0  0  0  0  0  0  0  0  0
    5.2922   -6.9962   -6.1469 C   0  0  0  0  0  0  0  0  0  0  0  0
    3.3529   -6.8798   -2.5328 C   0  0  0  0  0  0  0  0  0  0  0  0
    4.7030   -7.0382   -2.3347 N   0  0  0  0  0  0  0  0  0  0  0  0
    2.4919   -7.8315   -2.0404 C   0  0  0  0  0  0  0  0  0  0  0  0
    2.9618   -8.9297   -1.3603 C   0  0  0  0  0  0  0  0  0  0  0  0
    4.3082   -9.0652   -1.1760 C   0  0  0  0  0  0  0  0  0  0  0  0
    4.7536  -10.1623   -0.4980 F   0  0  0  0  0  0  0  0  0  0  0  0
    5.1638   -8.1029   -1.6739 C   0  0  0  0  0  0  0  0  0  0  0  0
    6.5923   -8.2945   -1.4498 C   0  0  0  0  0  0  0  0  0  0  0  0
    7.3024   -9.2120   -2.1944 C   0  0  0  0  0  0  0  0  0  0  0  0
    6.6472   -9.9282   -3.1356 F   0  0  0  0  0  0  0  0  0  0  0  0
    8.6498   -9.3612   -1.9497 C   0  0  0  0  0  0  0  0  0  0  0  0
    9.3098   -8.6250   -0.9869 C   0  0  0  0  0  0  0  0  0  0  0  0
    8.6131   -7.7025   -0.2332 C   0  0  0  0  0  0  0  0  0  0  0  0
    7.2660   -7.5623   -0.4871 C   0  0  0  0  0  0  0  0  0  0  0  0
    6.5188   -6.6471    0.2439 O   0  0  0  0  0  0  0  0  0  0  0  0
  2  1  1  1
  2  3  1  0
  2 11  1  0
  3  4  1  0
  4  5  1  0
  4  9  1  0
  5  6  2  0
  5  7  1  0
  7  8  1  0
  9 10  1  0
 10 11  1  0
 11 12  1  0
 12 13  2  0
 12 29  1  0
 13 14  1  0
 14 15  2  0
 14 16  1  0
 16 17  1  0
 16 27  1  0
 17 18  2  0
 17 23  1  0
 18 19  1  0
 18 20  1  0
 20 21  2  0
 21 22  1  0
 22 23  2  0
 23 24  1  0
 24 25  1  6
 24 26  1  0
 27 28  1  0
 27 29  2  0
 28 33  2  0
 29 30  1  0
 30 31  2  0
 31 32  1  0
 31 33  1  0
 33 34  1  0
 34 35  2  0
 34 40  1  0
 35 36  1  0
 35 37  1  0
 37 38  2  0
 38 39  1  0
 39 40  2  0
 40 41  1  0
M  END
$$$$
