
     RDKit          3D

 41 45  0  0  0  0  0  0  0  0999 V2000
    4.6849   -7.1082   -7.2544 C   0  0  0  0  0  0  0  0  0  0  0  0
    5.4127   -6.4390   -6.0790 C   0  0  1  0  0  0  0  0  0  0  0  0
    6.0320   -5.1755   -6.6919 C   0  0  0  0  0  0  0  0  0  0  0  0
    4.9509   -4.5403   -7.4234 N   0  0  0  0  0  0  0  0  0  0  0  0
    5.1437   -4.1003   -8.7470 C   0  0  0  0  0  0  0  0  0  0  0  0
    6.1320   -4.5178   -9.4011 O   0  0  0  0  0  0  0  0  0  0  0  0
    4.2089   -3.1467   -9.4103 C   0  0  0  0  0  0  0  0  0  0  0  0
    4.9615   -2.0065  -10.0295 C   0  0  0  0  0  0  0  0  0  0  0  0
    3.6829   -4.3872   -6.7243 C   0  0  0  0  0  0  0  0  0  0  0  0
    3.8014   -4.7596   -5.2618 C   0  0  0  0  0  0  0  0  0  0  0  0
    4.4565   -6.0383   -5.0657 N   0  0  0  0  0  0  0  0  0  0  0  0
    4.2372   -6.9076   -3.9782 C   0  0  0  0  0  0  0  0  0  0  0  0
    4.9836   -8.0243   -3.7785 N   0  0  0  0  0  0  0  0  0  0  0  0
    4.7939   -8.8395   -2.7300 C   0  0  0  0  0  0  0  0  0  0  0  0
    5.5806   -9.8576   -2.6782 O   0  0  0  0  0  0  0  0  0  0  0  0
    3.8580   -8.6101   -1.8099 N   0  0  0  0  0  0  0  0  0  0  0  0
    3.6704   -9.4687   -0.7224 C   0  0  0  0  0  0  0  0  0  0  0  0
    4.4031   -9.2171    0.4241 C   0  0  0  0  0  0  0  0  0  0  0  0
    5.3615   -8.0891    0.5340 C   0  0  0  0  0  0  0  0  0  0  0  0
    4.1814  -10.0930    1.4698 C   0  0  0  0  0  0  0  0  0  0  0  0
    3.2917  -11.1475    1.3817 C   0  0  0  0  0  0  0  0  0  0  0  0
    2.6259  -11.3079    0.2212 N   0  0  0  0  0  0  0  0  0  0  0  0
    2.7728  -10.5099   -0.8507 C   0  0  0  0  0  0  0  0  0  0  0  0
    1.9891  -10.7753   -2.0844 C   0  0  1  0  0  0  0  0  0  0  0  0
    2.1607  -12.2574   -2.3950 C   0  0  0  0  0  0  0  0  0  0  0  0
    0.4960  -10.6282   -1.8358 C   0  0  0  0  0  0  0  0  0  0  0  0
    3.0774   -7.5210   -1.9412 C   0  0  0  0  0  0  0  0  0  0  0  0
    2.0940   -7.2454   -1.0224 N   0  0  0  0  0  0  0  0  0  0  0  0
    3.2506   -6.6694   -3.0062 C   0  0  0  0  0  0  0  0  0  0  0  0
    2.4580   -5.5573   -3.1617 C   0  0  0  0  0  0  0  0  0  0  0  0
    1.4869   -5.3044   -2.2352 C   0  0  0  0  0  0  0  0  0  0  0  0
    0.7116   -4.1950   -2.4081 F   0  0  0  0  0  0  0  0  0  0  0  0
    1.3224   -6.1657   -1.1690 C   0  0  0  0  0  0  0  0  0  0  0  0
    0.2717   -5.8503   -0.2077 C   0  0  0  0  0  0  0  0  0  0  0  0
   -0.8679   -6.6227   -0.1353 C   0  0  0  0  0  0  0  0  0  0  0  0
   -0.9897   -7.6772   -0.9727 F   0  0  0  0  0  0  0  0  0  0  0  0
   -1.8353   -6.2891    0.7869 C   0  0  0  0  0  0  0  0  0  0  0  0
   -1.7015   -5.2108    1.6379 C   0  0  0  0  0  0  0  0  0  0  0  0
   -0.5666   -4.4279    1.5778 C   0  0  0  0  0  0  0  0  0  0  0  0
    0.3938   -4.7715    0.6514 C   0  0  0  0  0  0  0  0  0  0  0  0
    1.5553   -4.0158    0.5506 O   0  0  0  0  0  0  0  0  0  0  0  0
  2  1  1  6
  2  3  1  0
  2 11  1  0
  3  4  1  0
  4  5  1  0
  4  9  1  0
  5  6  2  0
  5  7  1  0
  7  8  1  0
  9 10  1  0
 10 11  1  0
 11 12  1  0
 12 13  2  0
 12 29  1  0
 13 14  1  0
 14 15  2  0
 14 16  1  0
 16 17  1  0
 16 27  1  0
 17 18  2  0
 17 23  1  0
 18 19  1  0
 18 20  1  0
 20 21  2  0
 21 22  1  0
 22 23  2  0
 23 24  1  0
 24 25  1  1
 24 26  1  0
 27 28  1  0
 27 29  2  0
 28 33  2  0
 29 30  1  0
 30 31  2  0
 31 32  1  0
 31 33  1  0
 33 34  1  0
 34 35  2  0
 34 40  1  0
 35 36  1  0
 35 37  1  0
 37 38  2  0
 38 39  1  0
 39 40  2  0
 40 41  1  0
M  END
$$$$
