
     RDKit          3D

 41 45  0  0  0  0  0  0  0  0999 V2000
   -2.3777   -6.1994   -0.2642 C   0  0  0  0  0  0  0  0  0  0  0  0
   -1.7663   -6.3374   -1.6664 C   0  0  1  0  0  0  0  0  0  0  0  0
   -2.4182   -5.2058   -2.4728 C   0  0  0  0  0  0  0  0  0  0  0  0
   -2.2651   -4.0186   -1.6516 N   0  0  0  0  0  0  0  0  0  0  0  0
   -3.3604   -3.1664   -1.4137 C   0  0  0  0  0  0  0  0  0  0  0  0
   -3.2263   -2.1865   -0.6385 O   0  0  0  0  0  0  0  0  0  0  0  0
   -4.6893   -3.3844   -2.0538 C   0  0  0  0  0  0  0  0  0  0  0  0
   -5.6759   -3.9258   -1.0623 C   0  0  0  0  0  0  0  0  0  0  0  0
   -0.9415   -3.7649   -1.1004 C   0  0  0  0  0  0  0  0  0  0  0  0
    0.0921   -4.7154   -1.6658 C   0  0  0  0  0  0  0  0  0  0  0  0
   -0.3373   -6.0993   -1.6110 N   0  0  0  0  0  0  0  0  0  0  0  0
    0.5187   -7.2145   -1.5109 C   0  0  0  0  0  0  0  0  0  0  0  0
    0.0492   -8.4804   -1.3670 N   0  0  0  0  0  0  0  0  0  0  0  0
    0.8610   -9.5463   -1.2974 C   0  0  0  0  0  0  0  0  0  0  0  0
    0.2661  -10.6801   -1.1612 O   0  0  0  0  0  0  0  0  0  0  0  0
    2.1872   -9.4367   -1.3645 N   0  0  0  0  0  0  0  0  0  0  0  0
    3.0217  -10.5561   -1.2897 C   0  0  0  0  0  0  0  0  0  0  0  0
    3.4844  -11.0888   -2.4800 C   0  0  0  0  0  0  0  0  0  0  0  0
    3.1304  -10.5222   -3.8054 C   0  0  0  0  0  0  0  0  0  0  0  0
    4.3056  -12.1930   -2.3523 C   0  0  0  0  0  0  0  0  0  0  0  0
    4.6439  -12.7310   -1.1246 C   0  0  0  0  0  0  0  0  0  0  0  0
    4.1416  -12.1392   -0.0232 N   0  0  0  0  0  0  0  0  0  0  0  0
    3.3359  -11.0632   -0.0445 C   0  0  0  0  0  0  0  0  0  0  0  0
    2.8358  -10.4871    1.2301 C   0  0  1  0  0  0  0  0  0  0  0  0
    2.1008  -11.6097    1.9528 C   0  0  0  0  0  0  0  0  0  0  0  0
    3.9806  -10.1407    2.1694 C   0  0  0  0  0  0  0  0  0  0  0  0
    2.7270   -8.2116   -1.5068 C   0  0  0  0  0  0  0  0  0  0  0  0
    4.0891   -8.0465   -1.5737 N   0  0  0  0  0  0  0  0  0  0  0  0
    1.9179   -7.1028   -1.5805 C   0  0  0  0  0  0  0  0  0  0  0  0
    2.4509   -5.8433   -1.7173 C   0  0  0  0  0  0  0  0  0  0  0  0
    3.8080   -5.7045   -1.7814 C   0  0  0  0  0  0  0  0  0  0  0  0
    4.3164   -4.4457   -1.9177 F   0  0  0  0  0  0  0  0  0  0  0  0
    4.6112   -6.8250   -1.7075 C   0  0  0  0  0  0  0  0  0  0  0  0
    6.0538   -6.6224   -1.7813 C   0  0  0  0  0  0  0  0  0  0  0  0
    6.7371   -6.0533   -0.7279 C   0  0  0  0  0  0  0  0  0  0  0  0
    6.0423   -5.6883    0.3731 F   0  0  0  0  0  0  0  0  0  0  0  0
    8.0991   -5.8800   -0.8397 C   0  0  0  0  0  0  0  0  0  0  0  0
    8.7996   -6.2562   -1.9678 C   0  0  0  0  0  0  0  0  0  0  0  0
    8.1300   -6.8273   -3.0308 C   0  0  0  0  0  0  0  0  0  0  0  0
    6.7679   -6.9955   -2.9071 C   0  0  0  0  0  0  0  0  0  0  0  0
    6.0469   -7.5659   -3.9487 O   0  0  0  0  0  0  0  0  0  0  0  0
  2  1  1  1
  2  3  1  0
  2 11  1  0
  3  4  1  0
  4  5  1  0
  4  9  1  0
  5  6  2  0
  5  7  1  0
  7  8  1  0
  9 10  1  0
 10 11  1  0
 11 12  1  0
 12 13  2  0
 12 29  1  0
 13 14  1  0
 14 15  2  0
 14 16  1  0
 16 17  1  0
 16 27  1  0
 17 18  2  0
 17 23  1  0
 18 19  1  0
 18 20  1  0
 20 21  2  0
 21 22  1  0
 22 23  2  0
 23 24  1  0
 24 25  1  1
 24 26  1  0
 27 28  1  0
 27 29  2  0
 28 33  2  0
 29 30  1  0
 30 31  2  0
 31 32  1  0
 31 33  1  0
 33 34  1  0
 34 35  2  0
 34 40  1  0
 35 36  1  0
 35 37  1  0
 37 38  2  0
 38 39  1  0
 39 40  2  0
 40 41  1  0
M  END
$$$$
