
     RDKit          3D

 41 45  0  0  0  0  0  0  0  0999 V2000
   -0.5387   -7.3575   -2.7006 C   0  0  0  0  0  0  0  0  0  0  0  0
    0.1260   -7.3470   -1.3161 C   0  0  1  0  0  0  0  0  0  0  0  0
   -1.0511   -7.4273   -0.3344 C   0  0  0  0  0  0  0  0  0  0  0  0
   -1.8708   -8.5248   -0.8148 N   0  0  0  0  0  0  0  0  0  0  0  0
   -3.2631   -8.3697   -0.9572 C   0  0  0  0  0  0  0  0  0  0  0  0
   -3.9063   -9.1764   -1.6745 O   0  0  0  0  0  0  0  0  0  0  0  0
   -4.0125   -7.2721   -0.2814 C   0  0  0  0  0  0  0  0  0  0  0  0
   -4.6814   -7.7720    0.9645 C   0  0  0  0  0  0  0  0  0  0  0  0
   -1.1850   -9.7691   -1.1336 C   0  0  0  0  0  0  0  0  0  0  0  0
    0.2670   -9.7331   -0.7071 C   0  0  0  0  0  0  0  0  0  0  0  0
    0.9462   -8.5308   -1.1496 N   0  0  0  0  0  0  0  0  0  0  0  0
    2.3247   -8.4281   -1.4244 C   0  0  0  0  0  0  0  0  0  0  0  0
    3.1387   -9.5138   -1.4739 N   0  0  0  0  0  0  0  0  0  0  0  0
    4.4460   -9.4215   -1.7607 C   0  0  0  0  0  0  0  0  0  0  0  0
    5.0852  -10.5392   -1.7699 O   0  0  0  0  0  0  0  0  0  0  0  0
    5.0381   -8.2558   -2.0171 N   0  0  0  0  0  0  0  0  0  0  0  0
    6.4021   -8.1738   -2.3137 C   0  0  0  0  0  0  0  0  0  0  0  0
    7.2757   -7.9880   -1.2568 C   0  0  0  0  0  0  0  0  0  0  0  0
    6.8208   -7.8751    0.1515 C   0  0  0  0  0  0  0  0  0  0  0  0
    8.6118   -7.9143   -1.6020 C   0  0  0  0  0  0  0  0  0  0  0  0
    9.0497   -8.0182   -2.9092 C   0  0  0  0  0  0  0  0  0  0  0  0
    8.1195   -8.1981   -3.8673 N   0  0  0  0  0  0  0  0  0  0  0  0
    6.7986   -8.2824   -3.6317 C   0  0  0  0  0  0  0  0  0  0  0  0
    5.8560   -8.4815   -4.7623 C   0  0  1  0  0  0  0  0  0  0  0  0
    6.2317   -7.4550   -5.8243 C   0  0  0  0  0  0  0  0  0  0  0  0
    6.0898   -9.8170   -5.4513 C   0  0  0  0  0  0  0  0  0  0  0  0
    4.2946   -7.1338   -1.9858 C   0  0  0  0  0  0  0  0  0  0  0  0
    4.8607   -5.9074   -2.2362 N   0  0  0  0  0  0  0  0  0  0  0  0
    2.9528   -7.2003   -1.6945 C   0  0  0  0  0  0  0  0  0  0  0  0
    2.1793   -6.0650   -1.6496 C   0  0  0  0  0  0  0  0  0  0  0  0
    2.7649   -4.8573   -1.9021 C   0  0  0  0  0  0  0  0  0  0  0  0
    1.9791   -3.7429   -1.8529 F   0  0  0  0  0  0  0  0  0  0  0  0
    4.1129   -4.8021   -2.1947 C   0  0  0  0  0  0  0  0  0  0  0  0
    4.6894   -3.4882   -2.4569 C   0  0  0  0  0  0  0  0  0  0  0  0
    5.1059   -3.1453   -3.7255 C   0  0  0  0  0  0  0  0  0  0  0  0
    4.9679   -4.0515   -4.7194 F   0  0  0  0  0  0  0  0  0  0  0  0
    5.6449   -1.8940   -3.9289 C   0  0  0  0  0  0  0  0  0  0  0  0
    5.7812   -0.9756   -2.9077 C   0  0  0  0  0  0  0  0  0  0  0  0
    5.3690   -1.3036   -1.6322 C   0  0  0  0  0  0  0  0  0  0  0  0
    4.8315   -2.5580   -1.4413 C   0  0  0  0  0  0  0  0  0  0  0  0
    4.4010   -2.9378   -0.1761 O   0  0  0  0  0  0  0  0  0  0  0  0
  2  1  1  6
  2  3  1  0
  2 11  1  0
  3  4  1  0
  4  5  1  0
  4  9  1  0
  5  6  2  0
  5  7  1  0
  7  8  1  0
  9 10  1  0
 10 11  1  0
 11 12  1  0
 12 13  2  0
 12 29  1  0
 13 14  1  0
 14 15  2  0
 14 16  1  0
 16 17  1  0
 16 27  1  0
 17 18  2  0
 17 23  1  0
 18 19  1  0
 18 20  1  0
 20 21  2  0
 21 22  1  0
 22 23  2  0
 23 24  1  0
 24 25  1  6
 24 26  1  0
 27 28  1  0
 27 29  2  0
 28 33  2  0
 29 30  1  0
 30 31  2  0
 31 32  1  0
 31 33  1  0
 33 34  1  0
 34 35  2  0
 34 40  1  0
 35 36  1  0
 35 37  1  0
 37 38  2  0
 38 39  1  0
 39 40  2  0
 40 41  1  0
M  END
$$$$
