
     RDKit          3D

 41 45  0  0  0  0  0  0  0  0999 V2000
   -1.6468   -6.7761   -1.6067 C   0  0  0  0  0  0  0  0  0  0  0  0
   -0.7460   -5.9676   -2.5521 C   0  0  1  0  0  0  0  0  0  0  0  0
   -1.4044   -4.5821   -2.6037 C   0  0  0  0  0  0  0  0  0  0  0  0
   -1.6311   -4.2185   -1.2168 N   0  0  0  0  0  0  0  0  0  0  0  0
   -2.8827   -3.7248   -0.8014 C   0  0  0  0  0  0  0  0  0  0  0  0
   -3.0855   -3.4973    0.4177 O   0  0  0  0  0  0  0  0  0  0  0  0
   -3.9898   -3.4583   -1.7639 C   0  0  0  0  0  0  0  0  0  0  0  0
   -5.0816   -4.4760   -1.6152 C   0  0  0  0  0  0  0  0  0  0  0  0
   -0.5133   -4.3897   -0.2994 C   0  0  0  0  0  0  0  0  0  0  0  0
    0.7630   -4.7440   -1.0321 C   0  0  0  0  0  0  0  0  0  0  0  0
    0.5779   -5.8274   -1.9781 N   0  0  0  0  0  0  0  0  0  0  0  0
    1.5750   -6.7402   -2.3765 C   0  0  0  0  0  0  0  0  0  0  0  0
    1.3219   -7.7667   -3.2287 N   0  0  0  0  0  0  0  0  0  0  0  0
    2.2749   -8.6216   -3.6298 C   0  0  0  0  0  0  0  0  0  0  0  0
    1.8798   -9.5422   -4.4388 O   0  0  0  0  0  0  0  0  0  0  0  0
    3.5385   -8.5230   -3.2190 N   0  0  0  0  0  0  0  0  0  0  0  0
    4.5217   -9.4217   -3.6443 C   0  0  0  0  0  0  0  0  0  0  0  0
    4.7489  -10.5385   -2.8598 C   0  0  0  0  0  0  0  0  0  0  0  0
    3.9984  -10.8073   -1.6077 C   0  0  0  0  0  0  0  0  0  0  0  0
    5.7292  -11.3954   -3.3231 C   0  0  0  0  0  0  0  0  0  0  0  0
    6.4357  -11.1580   -4.4875 C   0  0  0  0  0  0  0  0  0  0  0  0
    6.1398  -10.0413   -5.1812 N   0  0  0  0  0  0  0  0  0  0  0  0
    5.2048   -9.1484   -4.8127 C   0  0  0  0  0  0  0  0  0  0  0  0
    4.9567   -7.9474   -5.6508 C   0  0  1  0  0  0  0  0  0  0  0  0
    6.3238   -7.3584   -5.9776 C   0  0  0  0  0  0  0  0  0  0  0  0
    4.3917   -8.3267   -7.0108 C   0  0  0  0  0  0  0  0  0  0  0  0
    3.8658   -7.5295   -2.3715 C   0  0  0  0  0  0  0  0  0  0  0  0
    5.1537   -7.3905   -1.9143 N   0  0  0  0  0  0  0  0  0  0  0  0
    2.9086   -6.6400   -1.9448 C   0  0  0  0  0  0  0  0  0  0  0  0
    3.2219   -5.6243   -1.0733 C   0  0  0  0  0  0  0  0  0  0  0  0
    4.5092   -5.5067   -0.6326 C   0  0  0  0  0  0  0  0  0  0  0  0
    4.7989   -4.4914    0.2317 F   0  0  0  0  0  0  0  0  0  0  0  0
    5.4628   -6.4049   -1.0684 C   0  0  0  0  0  0  0  0  0  0  0  0
    6.8224   -6.2352   -0.5683 C   0  0  0  0  0  0  0  0  0  0  0  0
    7.8641   -5.9900   -1.4374 C   0  0  0  0  0  0  0  0  0  0  0  0
    7.5981   -5.9097   -2.7606 F   0  0  0  0  0  0  0  0  0  0  0  0
    9.1325   -5.8365   -0.9226 C   0  0  0  0  0  0  0  0  0  0  0  0
    9.3939   -5.9199    0.4300 C   0  0  0  0  0  0  0  0  0  0  0  0
    8.3619   -6.1647    1.3130 C   0  0  0  0  0  0  0  0  0  0  0  0
    7.0977   -6.3164    0.7861 C   0  0  0  0  0  0  0  0  0  0  0  0
    6.0239   -6.5644    1.6322 O   0  0  0  0  0  0  0  0  0  0  0  0
  2  1  1  1
  2  3  1  0
  2 11  1  0
  3  4  1  0
  4  5  1  0
  4  9  1  0
  5  6  2  0
  5  7  1  0
  7  8  1  0
  9 10  1  0
 10 11  1  0
 11 12  1  0
 12 13  2  0
 12 29  1  0
 13 14  1  0
 14 15  2  0
 14 16  1  0
 16 17  1  0
 16 27  1  0
 17 18  2  0
 17 23  1  0
 18 19  1  0
 18 20  1  0
 20 21  2  0
 21 22  1  0
 22 23  2  0
 23 24  1  0
 24 25  1  6
 24 26  1  0
 27 28  1  0
 27 29  2  0
 28 33  2  0
 29 30  1  0
 30 31  2  0
 31 32  1  0
 31 33  1  0
 33 34  1  0
 34 35  2  0
 34 40  1  0
 35 36  1  0
 35 37  1  0
 37 38  2  0
 38 39  1  0
 39 40  2  0
 40 41  1  0
M  END
$$$$
