
     RDKit          3D

 41 45  0  0  0  0  0  0  0  0999 V2000
   -1.7937   -6.2485   -2.3648 C   0  0  0  0  0  0  0  0  0  0  0  0
   -0.5744   -5.3409   -2.1442 C   0  0  1  0  0  0  0  0  0  0  0  0
   -1.1770   -3.9412   -1.9618 C   0  0  0  0  0  0  0  0  0  0  0  0
   -2.2324   -4.1082   -0.9791 N   0  0  0  0  0  0  0  0  0  0  0  0
   -3.5129   -3.5680   -1.2049 C   0  0  0  0  0  0  0  0  0  0  0  0
   -3.9085   -3.3830   -2.3832 O   0  0  0  0  0  0  0  0  0  0  0  0
   -4.4287   -3.2028   -0.0864 C   0  0  0  0  0  0  0  0  0  0  0  0
   -5.7470   -3.9045   -0.2263 C   0  0  0  0  0  0  0  0  0  0  0  0
   -1.8973   -4.8503    0.2281 C   0  0  0  0  0  0  0  0  0  0  0  0
   -0.4152   -5.1469    0.3097 C   0  0  0  0  0  0  0  0  0  0  0  0
    0.1065   -5.7125   -0.9194 N   0  0  0  0  0  0  0  0  0  0  0  0
    1.2113   -6.5828   -1.0110 C   0  0  0  0  0  0  0  0  0  0  0  0
    1.4125   -7.5969   -0.1307 N   0  0  0  0  0  0  0  0  0  0  0  0
    2.4491   -8.4427   -0.2308 C   0  0  0  0  0  0  0  0  0  0  0  0
    2.5041   -9.3521    0.6791 O   0  0  0  0  0  0  0  0  0  0  0  0
    3.3554   -8.3462   -1.2027 N   0  0  0  0  0  0  0  0  0  0  0  0
    4.4317   -9.2340   -1.2946 C   0  0  0  0  0  0  0  0  0  0  0  0
    4.2213  -10.4258   -1.9652 C   0  0  0  0  0  0  0  0  0  0  0  0
    2.9173  -10.7845   -2.5769 C   0  0  0  0  0  0  0  0  0  0  0  0
    5.3153  -11.2679   -2.0290 C   0  0  0  0  0  0  0  0  0  0  0  0
    6.5357  -10.9467   -1.4644 C   0  0  0  0  0  0  0  0  0  0  0  0
    6.6391   -9.7612   -0.8323 N   0  0  0  0  0  0  0  0  0  0  0  0
    5.6338   -8.8760   -0.7174 C   0  0  0  0  0  0  0  0  0  0  0  0
    5.8537   -7.5950    0.0017 C   0  0  1  0  0  0  0  0  0  0  0  0
    6.0156   -7.9487    1.4752 C   0  0  0  0  0  0  0  0  0  0  0  0
    7.1905   -6.9723   -0.3699 C   0  0  0  0  0  0  0  0  0  0  0  0
    3.2225   -7.3638   -2.1137 C   0  0  0  0  0  0  0  0  0  0  0  0
    4.1349   -7.2190   -3.1303 N   0  0  0  0  0  0  0  0  0  0  0  0
    2.1696   -6.4837   -2.0341 C   0  0  0  0  0  0  0  0  0  0  0  0
    2.0218   -5.4695   -2.9499 C   0  0  0  0  0  0  0  0  0  0  0  0
    2.9419   -5.3457   -3.9516 C   0  0  0  0  0  0  0  0  0  0  0  0
    2.7763   -4.3325   -4.8503 F   0  0  0  0  0  0  0  0  0  0  0  0
    3.9948   -6.2358   -4.0227 C   0  0  0  0  0  0  0  0  0  0  0  0
    4.9493   -6.0604   -5.1116 C   0  0  0  0  0  0  0  0  0  0  0  0
    5.7469   -4.9376   -5.1713 C   0  0  0  0  0  0  0  0  0  0  0  0
    5.6258   -4.0049   -4.2000 F   0  0  0  0  0  0  0  0  0  0  0  0
    6.6345   -4.8120   -6.2172 C   0  0  0  0  0  0  0  0  0  0  0  0
    6.7511   -5.7699   -7.2039 C   0  0  0  0  0  0  0  0  0  0  0  0
    5.9597   -6.8996   -7.1583 C   0  0  0  0  0  0  0  0  0  0  0  0
    5.0758   -7.0139   -6.1073 C   0  0  0  0  0  0  0  0  0  0  0  0
    4.2564   -8.1321   -6.0149 O   0  0  0  0  0  0  0  0  0  0  0  0
  2  1  1  1
  2  3  1  0
  2 11  1  0
  3  4  1  0
  4  5  1  0
  4  9  1  0
  5  6  2  0
  5  7  1  0
  7  8  1  0
  9 10  1  0
 10 11  1  0
 11 12  1  0
 12 13  2  0
 12 29  1  0
 13 14  1  0
 14 15  2  0
 14 16  1  0
 16 17  1  0
 16 27  1  0
 17 18  2  0
 17 23  1  0
 18 19  1  0
 18 20  1  0
 20 21  2  0
 21 22  1  0
 22 23  2  0
 23 24  1  0
 24 25  1  1
 24 26  1  0
 27 28  1  0
 27 29  2  0
 28 33  2  0
 29 30  1  0
 30 31  2  0
 31 32  1  0
 31 33  1  0
 33 34  1  0
 34 35  2  0
 34 40  1  0
 35 36  1  0
 35 37  1  0
 37 38  2  0
 38 39  1  0
 39 40  2  0
 40 41  1  0
M  END
$$$$
