
     RDKit          3D

 41 45  0  0  0  0  0  0  0  0999 V2000
   -1.7412   -6.4275   -2.4208 C   0  0  0  0  0  0  0  0  0  0  0  0
   -0.9359   -5.5892   -1.4169 C   0  0  1  0  0  0  0  0  0  0  0  0
   -1.8191   -5.5562   -0.1622 C   0  0  0  0  0  0  0  0  0  0  0  0
   -2.1923   -6.9388    0.0749 N   0  0  0  0  0  0  0  0  0  0  0  0
   -3.5340   -7.2857    0.3243 C   0  0  0  0  0  0  0  0  0  0  0  0
   -4.4506   -6.4906   -0.0023 O   0  0  0  0  0  0  0  0  0  0  0  0
   -3.9136   -8.5756    0.9687 C   0  0  0  0  0  0  0  0  0  0  0  0
   -3.8663   -9.7005   -0.0223 C   0  0  0  0  0  0  0  0  0  0  0  0
   -1.1218   -7.9254    0.0413 C   0  0  0  0  0  0  0  0  0  0  0  0
    0.2401   -7.2708   -0.0480 C   0  0  0  0  0  0  0  0  0  0  0  0
    0.3050   -6.2635   -1.0891 N   0  0  0  0  0  0  0  0  0  0  0  0
    1.4680   -5.8951   -1.7949 C   0  0  0  0  0  0  0  0  0  0  0  0
    1.5287   -4.7764   -2.5620 N   0  0  0  0  0  0  0  0  0  0  0  0
    2.6424   -4.4097   -3.2142 C   0  0  0  0  0  0  0  0  0  0  0  0
    2.5434   -3.3246   -3.9002 O   0  0  0  0  0  0  0  0  0  0  0  0
    3.7685   -5.1193   -3.1547 N   0  0  0  0  0  0  0  0  0  0  0  0
    4.9219   -4.7260   -3.8403 C   0  0  0  0  0  0  0  0  0  0  0  0
    5.7917   -3.8695   -3.1889 C   0  0  0  0  0  0  0  0  0  0  0  0
    5.5445   -3.3652   -1.8149 C   0  0  0  0  0  0  0  0  0  0  0  0
    6.9161   -3.5113   -3.9081 C   0  0  0  0  0  0  0  0  0  0  0  0
    7.1593   -3.9735   -5.1881 C   0  0  0  0  0  0  0  0  0  0  0  0
    6.2508   -4.8044   -5.7356 N   0  0  0  0  0  0  0  0  0  0  0  0
    5.1281   -5.2098   -5.1170 C   0  0  0  0  0  0  0  0  0  0  0  0
    4.1906   -6.1290   -5.8115 C   0  0  1  0  0  0  0  0  0  0  0  0
    3.6984   -5.3899   -7.0501 C   0  0  0  0  0  0  0  0  0  0  0  0
    4.9170   -7.3394   -6.3772 C   0  0  0  0  0  0  0  0  0  0  0  0
    3.7847   -6.2430   -2.4133 C   0  0  0  0  0  0  0  0  0  0  0  0
    4.9196   -7.0121   -2.3263 N   0  0  0  0  0  0  0  0  0  0  0  0
    2.6573   -6.6414   -1.7352 C   0  0  0  0  0  0  0  0  0  0  0  0
    2.6521   -7.7898   -0.9802 C   0  0  0  0  0  0  0  0  0  0  0  0
    3.7926   -8.5379   -0.9092 C   0  0  0  0  0  0  0  0  0  0  0  0
    3.7661   -9.6740   -0.1538 F   0  0  0  0  0  0  0  0  0  0  0  0
    4.9194   -8.1280   -1.5933 C   0  0  0  0  0  0  0  0  0  0  0  0
    6.1110   -8.9620   -1.4842 C   0  0  0  0  0  0  0  0  0  0  0  0
    6.6710   -9.2278   -0.2528 C   0  0  0  0  0  0  0  0  0  0  0  0
    6.0921   -8.7001    0.8492 F   0  0  0  0  0  0  0  0  0  0  0  0
    7.7965  -10.0200   -0.1954 C   0  0  0  0  0  0  0  0  0  0  0  0
    8.3799  -10.5545   -1.3262 C   0  0  0  0  0  0  0  0  0  0  0  0
    7.8313  -10.2977   -2.5662 C   0  0  0  0  0  0  0  0  0  0  0  0
    6.7057   -9.5041   -2.6108 C   0  0  0  0  0  0  0  0  0  0  0  0
    6.1144   -9.2154   -3.8345 O   0  0  0  0  0  0  0  0  0  0  0  0
  2  1  1  6
  2  3  1  0
  2 11  1  0
  3  4  1  0
  4  5  1  0
  4  9  1  0
  5  6  2  0
  5  7  1  0
  7  8  1  0
  9 10  1  0
 10 11  1  0
 11 12  1  0
 12 13  2  0
 12 29  1  0
 13 14  1  0
 14 15  2  0
 14 16  1  0
 16 17  1  0
 16 27  1  0
 17 18  2  0
 17 23  1  0
 18 19  1  0
 18 20  1  0
 20 21  2  0
 21 22  1  0
 22 23  2  0
 23 24  1  0
 24 25  1  6
 24 26  1  0
 27 28  1  0
 27 29  2  0
 28 33  2  0
 29 30  1  0
 30 31  2  0
 31 32  1  0
 31 33  1  0
 33 34  1  0
 34 35  2  0
 34 40  1  0
 35 36  1  0
 35 37  1  0
 37 38  2  0
 38 39  1  0
 39 40  2  0
 40 41  1  0
M  END
$$$$
