
     RDKit          3D

 42 44  0  0  0  0  0  0  0  0999 V2000
   -2.4054  -19.8011   40.8125 C   0  0  2  0  0  0  0  0  0  0  0  0
   -2.0360  -18.4239   40.4430 C   0  0  0  0  0  0  0  0  0  0  0  0
   -0.6752  -17.8668   31.0628 C   0  0  0  0  0  0  0  0  0  0  0  0
    0.1796  -17.1372   30.2901 C   0  0  0  0  0  0  0  0  0  0  0  0
   -0.1123  -16.0894   29.2489 C   0  0  0  0  0  0  0  0  0  0  0  0
   -0.2969  -14.1107   30.8353 C   0  0  0  0  0  0  0  0  0  0  0  0
   -2.4280  -14.5915   32.1106 C   0  0  0  0  0  0  0  0  0  0  0  0
   -4.7887  -14.8008   31.4771 C   0  0  0  0  0  0  0  0  0  0  0  0
   -0.4388  -20.7285   33.1270 O   0  0  0  0  0  0  0  0  0  0  0  0
   -0.9069  -19.4757   33.0896 C   0  0  0  0  0  0  0  0  0  0  0  0
   -1.8988  -19.2875   34.0276 N   0  0  0  0  0  0  0  0  0  0  0  0
   -3.1946  -18.6954   34.1298 C   0  0  1  0  0  0  0  0  0  0  0  0
   -3.8012  -18.0144   32.9905 C   0  0  0  0  0  0  0  0  0  0  0  0
   -4.1957  -19.7042   34.7664 C   0  0  0  0  0  0  0  0  0  0  0  0
   -3.5455  -20.9778   34.9311 N   0  0  0  0  0  4  0  0  0  0  0  0
   -2.7781  -20.9914   36.1745 C   0  0  2  0  0  0  0  0  0  0  0  0
   -2.1583  -22.3170   36.4760 C   0  0  1  0  0  0  0  0  0  0  0  0
   -1.7488  -22.4953   37.7761 O   0  0  0  0  0  0  0  0  0  0  0  0
   -3.1282  -23.4478   36.1255 C   0  0  0  0  0  0  0  0  0  0  0  0
   -3.7113  -20.6720   37.3326 C   0  0  0  0  0  0  0  0  0  0  0  0
   -3.2389  -20.0918   38.5236 N   0  0  0  0  0  0  0  0  0  0  0  0
   -2.9747  -20.6975   39.7839 C   0  0  0  0  0  0  0  0  0  0  0  0
   -3.3687  -19.7685   42.0158 C   0  0  0  0  0  0  0  0  0  0  0  0
   -4.9233  -20.9429   37.1861 O   0  0  0  0  0  0  0  0  0  0  0  0
   -0.1942  -18.6837   32.0458 C   0  0  0  0  0  0  0  0  0  0  0  0
   -0.9074  -14.8963   29.6962 C   0  0  0  0  0  0  0  0  0  0  0  0
   -1.3112  -13.6284   31.8477 C   0  0  0  0  0  0  0  0  0  0  0  0
   -3.6154  -14.0936   31.5274 C   0  0  0  0  0  0  0  0  0  0  0  0
   -4.7300  -16.0439   32.0360 C   0  0  0  0  0  0  0  0  0  0  0  0
   -3.5594  -16.5916   32.6361 C   0  0  0  0  0  0  0  0  0  0  0  0
   -2.4132  -15.8460   32.6711 C   0  0  0  0  0  0  0  0  0  0  0  0
    1.5723  -17.2405   30.5006 C   0  0  0  0  0  0  0  0  0  0  0  0
    2.1277  -18.0451   31.4610 C   0  0  0  0  0  0  0  0  0  0  0  0
    3.5295  -18.1735   31.6634 N   0  0  0  0  0  0  0  0  0  0  0  0
    4.2839  -17.0607   32.0939 C   0  0  0  0  0  0  0  0  0  0  0  0
    5.5477  -17.2696   32.8224 C   0  0  0  0  0  0  0  0  0  0  0  0
    6.3785  -16.0369   32.8728 C   0  0  0  0  0  0  0  0  0  0  0  0
    4.1720  -19.7592   31.4087 S   0  0  1  0  0  6  0  0  0  0  0  0
    5.6026  -19.7676   31.0407 O   0  0  0  0  0  0  0  0  0  0  0  0
    3.9886  -20.6902   32.9138 C   0  0  0  0  0  0  0  0  0  0  0  0
    3.3591  -20.4902   30.3499 O   0  0  0  0  0  0  0  0  0  0  0  0
    1.2187  -18.7389   32.2015 C   0  0  0  0  0  0  0  0  0  0  0  0
  1  2  1  6
 22  1  1  0
  1 23  1  0
  3  4  2  0
 25  3  1  0
  4  5  1  0
  4 32  1  0
  5 26  1  0
 26  6  1  0
  6 27  1  0
 27  7  1  0
  7 28  2  0
  7 31  1  0
 28  8  1  0
  8 29  2  0
 10  9  2  0
 11 10  1  0
 10 25  1  0
 12 11  1  0
 12 13  1  0
 12 14  1  6
 13 30  1  0
 15 14  1  0
 16 15  1  6
 16 17  1  0
 20 16  1  0
 17 18  1  0
 17 19  1  1
 21 20  1  0
 20 24  2  0
 21 22  1  0
 25 42  2  0
 29 30  1  0
 30 31  2  0
 32 33  2  0
 33 34  1  0
 33 42  1  0
 34 35  1  0
 34 38  1  0
 35 36  1  0
 36 37  1  0
 38 39  2  0
 38 40  1  1
 38 41  2  0
M  CHG  1  15   1
M  END
$$$$
