
     RDKit          3D

 42 44  0  0  0  0  0  0  0  0999 V2000
   -3.9489  -14.3856   34.2568 C   0  0  2  0  0  0  0  0  0  0  0  0
   -2.6066  -13.8561   34.5525 C   0  0  0  0  0  0  0  0  0  0  0  0
    1.9560  -18.9863   35.0069 C   0  0  0  0  0  0  0  0  0  0  0  0
    3.2461  -18.9174   34.5703 C   0  0  0  0  0  0  0  0  0  0  0  0
    4.5307  -19.2157   35.2970 C   0  0  0  0  0  0  0  0  0  0  0  0
    4.5643  -21.7211   34.8637 C   0  0  0  0  0  0  0  0  0  0  0  0
    2.6348  -22.5733   36.2601 C   0  0  0  0  0  0  0  0  0  0  0  0
    2.1470  -22.6031   38.6641 C   0  0  0  0  0  0  0  0  0  0  0  0
   -1.1919  -17.8588   33.8553 O   0  0  0  0  0  0  0  0  0  0  0  0
   -0.5524  -18.9330   34.3321 C   0  0  0  0  0  0  0  0  0  0  0  0
   -1.4404  -19.8503   34.8510 N   0  0  0  0  0  0  0  0  0  0  0  0
   -1.5908  -20.6796   36.0042 C   0  0  1  0  0  0  0  0  0  0  0  0
   -0.5706  -20.7075   37.0474 C   0  0  0  0  0  0  0  0  0  0  0  0
   -3.0068  -20.4856   36.6224 C   0  0  0  0  0  0  0  0  0  0  0  0
   -3.4347  -19.1277   36.4112 N   0  0  0  0  0  4  0  0  0  0  0  0
   -3.8846  -18.9529   35.0319 C   0  0  2  0  0  0  0  0  0  0  0  0
   -3.9515  -20.2316   34.2620 C   0  0  1  0  0  0  0  0  0  0  0  0
   -4.5374  -21.2869   34.9197 O   0  0  0  0  0  0  0  0  0  0  0  0
   -4.7016  -20.0188   32.9450 C   0  0  0  0  0  0  0  0  0  0  0  0
   -2.8975  -18.0546   34.3021 C   0  0  0  0  0  0  0  0  0  0  0  0
   -3.0158  -16.6533   34.3274 N   0  0  0  0  0  0  0  0  0  0  0  0
   -4.1853  -15.8426   34.3381 C   0  0  0  0  0  0  0  0  0  0  0  0
   -4.3977  -13.8973   32.8650 C   0  0  0  0  0  0  0  0  0  0  0  0
   -1.9683  -18.6102   33.6763 O   0  0  0  0  0  0  0  0  0  0  0  0
    0.9198  -18.7919   34.1388 C   0  0  0  0  0  0  0  0  0  0  0  0
    4.6780  -20.5967   35.8688 C   0  0  0  0  0  0  0  0  0  0  0  0
    3.7974  -22.9175   35.3805 C   0  0  0  0  0  0  0  0  0  0  0  0
    2.9491  -22.9116   37.5961 C   0  0  0  0  0  0  0  0  0  0  0  0
    1.0040  -21.9309   38.3438 C   0  0  0  0  0  0  0  0  0  0  0  0
    0.6412  -21.5670   37.0147 C   0  0  0  0  0  0  0  0  0  0  0  0
    1.4686  -21.9033   35.9788 C   0  0  0  0  0  0  0  0  0  0  0  0
    3.5097  -18.6283   33.2132 C   0  0  0  0  0  0  0  0  0  0  0  0
    2.5226  -18.4131   32.2872 C   0  0  0  0  0  0  0  0  0  0  0  0
    2.7795  -18.0974   30.9245 N   0  0  0  0  0  0  0  0  0  0  0  0
    3.7124  -18.8597   30.1887 C   0  0  0  0  0  0  0  0  0  0  0  0
    5.1313  -18.8643   30.5865 C   0  0  0  0  0  0  0  0  0  0  0  0
    5.9271  -19.8606   29.8207 C   0  0  0  0  0  0  0  0  0  0  0  0
    1.8371  -16.8005   30.2748 S   0  0  1  0  0  6  0  0  0  0  0  0
    1.7758  -15.6141   31.1527 O   0  0  0  0  0  0  0  0  0  0  0  0
    2.5586  -16.2997   28.7274 C   0  0  0  0  0  0  0  0  0  0  0  0
    0.4297  -17.2840   29.9558 O   0  0  0  0  0  0  0  0  0  0  0  0
    1.2587  -18.5045   32.7875 C   0  0  0  0  0  0  0  0  0  0  0  0
  1  2  1  6
 22  1  1  0
  1 23  1  0
  3  4  2  0
 25  3  1  0
  4  5  1  0
  4 32  1  0
  5 26  1  0
 26  6  1  0
  6 27  1  0
 27  7  1  0
  7 28  2  0
  7 31  1  0
 28  8  1  0
  8 29  2  0
 10  9  2  0
 11 10  1  0
 10 25  1  0
 12 11  1  0
 12 13  1  0
 12 14  1  1
 13 30  1  0
 15 14  1  0
 16 15  1  1
 16 17  1  0
 20 16  1  0
 17 18  1  0
 17 19  1  6
 21 20  1  0
 20 24  2  0
 21 22  1  0
 25 42  2  0
 29 30  1  0
 30 31  2  0
 32 33  2  0
 33 34  1  0
 33 42  1  0
 34 35  1  0
 34 38  1  0
 35 36  1  0
 36 37  1  0
 38 39  2  0
 38 40  1  6
 38 41  2  0
M  CHG  1  15   1
M  END
$$$$
