
     RDKit          3D

 42 44  0  0  0  0  0  0  0  0999 V2000
   -1.7612  -24.0008   37.8595 C   0  0  2  0  0  0  0  0  0  0  0  0
   -2.3260  -25.1883   37.1956 C   0  0  0  0  0  0  0  0  0  0  0  0
   -0.0025  -18.1105   30.9569 C   0  0  0  0  0  0  0  0  0  0  0  0
    0.9035  -17.5499   30.1056 C   0  0  0  0  0  0  0  0  0  0  0  0
    0.6845  -16.7651   28.8393 C   0  0  0  0  0  0  0  0  0  0  0  0
    0.3667  -14.4897   29.9290 C   0  0  0  0  0  0  0  0  0  0  0  0
   -1.8518  -14.7266   31.1212 C   0  0  0  0  0  0  0  0  0  0  0  0
   -4.1562  -15.1259   30.3804 C   0  0  0  0  0  0  0  0  0  0  0  0
    0.0957  -20.4391   33.6167 O   0  0  0  0  0  0  0  0  0  0  0  0
   -0.3767  -19.2368   33.2681 C   0  0  0  0  0  0  0  0  0  0  0  0
   -1.4381  -18.8693   34.0663 N   0  0  0  0  0  0  0  0  0  0  0  0
   -2.7419  -18.2997   33.9403 C   0  0  1  0  0  0  0  0  0  0  0  0
   -3.2648  -17.9016   32.6372 C   0  0  0  0  0  0  0  0  0  0  0  0
   -3.7816  -19.1661   34.7106 C   0  0  0  0  0  0  0  0  0  0  0  0
   -3.8961  -18.6808   36.0609 N   0  0  0  0  0  4  0  0  0  0  0  0
   -3.7763  -19.7906   37.0039 C   0  0  2  0  0  0  0  0  0  0  0  0
   -3.7058  -19.3532   38.4308 C   0  0  1  0  0  0  0  0  0  0  0  0
   -4.8083  -18.6770   38.8963 O   0  0  0  0  0  0  0  0  0  0  0  0
   -3.4690  -20.5585   39.3437 C   0  0  0  0  0  0  0  0  0  0  0  0
   -2.4881  -20.5459   36.7143 C   0  0  0  0  0  0  0  0  0  0  0  0
   -2.4441  -21.9516   36.6964 N   0  0  0  0  0  0  0  0  0  0  0  0
   -1.3789  -22.8294   37.0428 C   0  0  0  0  0  0  0  0  0  0  0  0
   -0.5448  -24.4184   38.7097 C   0  0  0  0  0  0  0  0  0  0  0  0
   -1.4621  -19.8676   36.4881 O   0  0  0  0  0  0  0  0  0  0  0  0
    0.4079  -18.6785   32.1290 C   0  0  0  0  0  0  0  0  0  0  0  0
   -0.1502  -15.5216   28.9515 C   0  0  0  0  0  0  0  0  0  0  0  0
   -0.7249  -13.8195   30.7327 C   0  0  0  0  0  0  0  0  0  0  0  0
   -2.9949  -14.3978   30.3574 C   0  0  0  0  0  0  0  0  0  0  0  0
   -4.1317  -16.2130   31.2041 C   0  0  0  0  0  0  0  0  0  0  0  0
   -3.0064  -16.5871   31.9942 C   0  0  0  0  0  0  0  0  0  0  0  0
   -1.8712  -15.8256   31.9458 C   0  0  0  0  0  0  0  0  0  0  0  0
    2.2769  -17.5715   30.4342 C   0  0  0  0  0  0  0  0  0  0  0  0
    2.7632  -18.1308   31.5870 C   0  0  0  0  0  0  0  0  0  0  0  0
    4.1464  -18.1785   31.9140 N   0  0  0  0  0  0  0  0  0  0  0  0
    4.6516  -17.3733   32.9578 C   0  0  0  0  0  0  0  0  0  0  0  0
    4.8754  -15.9346   32.7309 C   0  0  0  0  0  0  0  0  0  0  0  0
    5.5455  -15.2803   33.8864 C   0  0  0  0  0  0  0  0  0  0  0  0
    5.0844  -19.3090   31.0007 S   0  0  1  0  0  6  0  0  0  0  0  0
    5.3523  -20.5729   31.7169 O   0  0  0  0  0  0  0  0  0  0  0  0
    4.1976  -19.7024   29.5093 C   0  0  0  0  0  0  0  0  0  0  0  0
    6.3956  -18.6709   30.5650 O   0  0  0  0  0  0  0  0  0  0  0  0
    1.8052  -18.6649   32.3952 C   0  0  0  0  0  0  0  0  0  0  0  0
  1  2  1  6
 22  1  1  0
  1 23  1  0
  3  4  2  0
 25  3  1  0
  4  5  1  0
  4 32  1  0
  5 26  1  0
 26  6  1  0
  6 27  1  0
 27  7  1  0
  7 28  2  0
  7 31  1  0
 28  8  1  0
  8 29  2  0
 10  9  2  0
 11 10  1  0
 10 25  1  0
 12 11  1  0
 12 13  1  0
 12 14  1  6
 13 30  1  0
 15 14  1  0
 16 15  1  6
 16 17  1  0
 20 16  1  0
 17 18  1  0
 17 19  1  1
 21 20  1  0
 20 24  2  0
 21 22  1  0
 25 42  2  0
 29 30  1  0
 30 31  2  0
 32 33  2  0
 33 34  1  0
 33 42  1  0
 34 35  1  0
 34 38  1  0
 35 36  1  0
 36 37  1  0
 38 39  2  0
 38 40  1  6
 38 41  2  0
M  CHG  1  15   1
M  END
$$$$
