
     RDKit          3D

 42 44  0  0  0  0  0  0  0  0999 V2000
   -6.4923  -21.3188   40.0085 C   0  0  2  0  0  0  0  0  0  0  0  0
   -5.4442  -21.4989   41.0277 C   0  0  0  0  0  0  0  0  0  0  0  0
   -2.0234  -17.4531   31.8404 C   0  0  0  0  0  0  0  0  0  0  0  0
   -1.8400  -16.8652   30.6236 C   0  0  0  0  0  0  0  0  0  0  0  0
   -2.5014  -15.6519   30.0256 C   0  0  0  0  0  0  0  0  0  0  0  0
   -0.9553  -13.9123   31.0498 C   0  0  0  0  0  0  0  0  0  0  0  0
   -1.5295  -14.0091   33.5115 C   0  0  0  0  0  0  0  0  0  0  0  0
   -3.5551  -13.5407   34.8138 C   0  0  0  0  0  0  0  0  0  0  0  0
   -1.1382  -20.5263   33.3498 O   0  0  0  0  0  0  0  0  0  0  0  0
   -1.1353  -19.2024   33.5437 C   0  0  0  0  0  0  0  0  0  0  0  0
   -1.0459  -18.8967   34.8844 N   0  0  0  0  0  0  0  0  0  0  0  0
   -1.6472  -18.0193   35.8377 C   0  0  1  0  0  0  0  0  0  0  0  0
   -2.6778  -17.0671   35.4366 C   0  0  0  0  0  0  0  0  0  0  0  0
   -2.0962  -18.8211   37.0949 C   0  0  0  0  0  0  0  0  0  0  0  0
   -1.5315  -20.1440   37.0405 N   0  0  0  0  0  4  0  0  0  0  0  0
   -2.5976  -21.1423   36.9965 C   0  0  2  0  0  0  0  0  0  0  0  0
   -2.8469  -21.6858   35.6273 C   0  0  1  0  0  0  0  0  0  0  0  0
   -1.7896  -21.5933   34.7538 O   0  0  0  0  0  0  0  0  0  0  0  0
   -3.2671  -23.1552   35.7086 C   0  0  0  0  0  0  0  0  0  0  0  0
   -3.8967  -20.4958   37.4532 C   0  0  0  0  0  0  0  0  0  0  0  0
   -4.8662  -21.2155   38.1746 N   0  0  0  0  0  0  0  0  0  0  0  0
   -6.1247  -20.7845   38.6801 C   0  0  0  0  0  0  0  0  0  0  0  0
   -7.6252  -20.4473   40.5863 C   0  0  0  0  0  0  0  0  0  0  0  0
   -4.0723  -19.2918   37.1647 O   0  0  0  0  0  0  0  0  0  0  0  0
   -1.2218  -18.4842   32.2393 C   0  0  0  0  0  0  0  0  0  0  0  0
   -2.3746  -14.3669   30.7926 C   0  0  0  0  0  0  0  0  0  0  0  0
   -0.7491  -13.3283   32.4293 C   0  0  0  0  0  0  0  0  0  0  0  0
   -2.5801  -13.1603   33.9284 C   0  0  0  0  0  0  0  0  0  0  0  0
   -3.4422  -14.8209   35.2713 C   0  0  0  0  0  0  0  0  0  0  0  0
   -2.4033  -15.7156   34.8830 C   0  0  0  0  0  0  0  0  0  0  0  0
   -1.4467  -15.2896   34.0031 C   0  0  0  0  0  0  0  0  0  0  0  0
   -0.8223  -17.3380   29.7659 C   0  0  0  0  0  0  0  0  0  0  0  0
    0.0140  -18.3729   30.0942 C   0  0  0  0  0  0  0  0  0  0  0  0
    1.0250  -18.8711   29.2269 N   0  0  0  0  0  0  0  0  0  0  0  0
    0.7103  -19.1895   27.8880 C   0  0  0  0  0  0  0  0  0  0  0  0
    1.1646  -18.3072   26.7987 C   0  0  0  0  0  0  0  0  0  0  0  0
    0.5956  -18.7003   25.4818 C   0  0  0  0  0  0  0  0  0  0  0  0
    2.6068  -18.9783   29.9185 S   0  0  1  0  0  6  0  0  0  0  0  0
    3.6636  -19.2947   28.9360 O   0  0  0  0  0  0  0  0  0  0  0  0
    3.0035  -17.4122   30.6638 C   0  0  0  0  0  0  0  0  0  0  0  0
    2.6188  -20.0041   31.0427 O   0  0  0  0  0  0  0  0  0  0  0  0
   -0.2181  -18.9088   31.3251 C   0  0  0  0  0  0  0  0  0  0  0  0
  1  2  1  1
 22  1  1  0
  1 23  1  0
  3  4  2  0
 25  3  1  0
  4  5  1  0
  4 32  1  0
  5 26  1  0
 26  6  1  0
  6 27  1  0
 27  7  1  0
  7 28  2  0
  7 31  1  0
 28  8  1  0
  8 29  2  0
 10  9  2  0
 11 10  1  0
 10 25  1  0
 12 11  1  0
 12 13  1  0
 12 14  1  1
 13 30  1  0
 15 14  1  0
 16 15  1  6
 16 17  1  0
 20 16  1  0
 17 18  1  0
 17 19  1  1
 21 20  1  0
 20 24  2  0
 21 22  1  0
 25 42  2  0
 29 30  1  0
 30 31  2  0
 32 33  2  0
 33 34  1  0
 33 42  1  0
 34 35  1  0
 34 38  1  0
 35 36  1  0
 36 37  1  0
 38 39  2  0
 38 40  1  1
 38 41  2  0
M  CHG  1  15   1
M  END
$$$$
