
     RDKit          3D

 42 44  0  0  0  0  0  0  0  0999 V2000
   -5.9229  -19.3491   39.8207 C   0  0  2  0  0  0  0  0  0  0  0  0
   -7.1746  -18.7142   39.3736 C   0  0  0  0  0  0  0  0  0  0  0  0
   -0.7539  -18.2482   31.2823 C   0  0  0  0  0  0  0  0  0  0  0  0
    0.1758  -17.6851   30.4587 C   0  0  0  0  0  0  0  0  0  0  0  0
    0.0045  -16.6813   29.3495 C   0  0  0  0  0  0  0  0  0  0  0  0
    0.0876  -14.5930   30.7980 C   0  0  0  0  0  0  0  0  0  0  0  0
   -2.0713  -14.7160   32.1107 C   0  0  0  0  0  0  0  0  0  0  0  0
   -4.4472  -14.6697   31.5014 C   0  0  0  0  0  0  0  0  0  0  0  0
   -0.8519  -20.9718   33.5360 O   0  0  0  0  0  0  0  0  0  0  0  0
   -1.1603  -19.6754   33.4150 C   0  0  0  0  0  0  0  0  0  0  0  0
   -2.1095  -19.3018   34.3414 N   0  0  0  0  0  0  0  0  0  0  0  0
   -3.3199  -18.5464   34.4077 C   0  0  1  0  0  0  0  0  0  0  0  0
   -3.8504  -17.8727   33.2268 C   0  0  0  0  0  0  0  0  0  0  0  0
   -4.4313  -19.3766   35.1151 C   0  0  0  0  0  0  0  0  0  0  0  0
   -3.9390  -20.7038   35.3753 N   0  0  0  0  0  4  0  0  0  0  0  0
   -3.1828  -20.7216   36.6255 C   0  0  2  0  0  0  0  0  0  0  0  0
   -1.8397  -21.3636   36.4988 C   0  0  1  0  0  0  0  0  0  0  0  0
   -1.1647  -21.5588   37.6803 O   0  0  0  0  0  0  0  0  0  0  0  0
   -1.9632  -22.7168   35.7946 C   0  0  0  0  0  0  0  0  0  0  0  0
   -3.9567  -21.5277   37.6576 C   0  0  0  0  0  0  0  0  0  0  0  0
   -4.3363  -20.9744   38.8939 N   0  0  0  0  0  0  0  0  0  0  0  0
   -5.6373  -20.7437   39.4222 C   0  0  0  0  0  0  0  0  0  0  0  0
   -5.8178  -19.2509   41.3556 C   0  0  0  0  0  0  0  0  0  0  0  0
   -4.2483  -22.7079   37.3649 O   0  0  0  0  0  0  0  0  0  0  0  0
   -0.3669  -19.0510   32.3170 C   0  0  0  0  0  0  0  0  0  0  0  0
   -0.6299  -15.3706   29.7172 C   0  0  0  0  0  0  0  0  0  0  0  0
   -0.8463  -13.9204   31.7788 C   0  0  0  0  0  0  0  0  0  0  0  0
   -3.1942  -14.1134   31.4992 C   0  0  0  0  0  0  0  0  0  0  0  0
   -4.5374  -15.8699   32.1435 C   0  0  0  0  0  0  0  0  0  0  0  0
   -3.4371  -16.5186   32.7754 C   0  0  0  0  0  0  0  0  0  0  0  0
   -2.2065  -15.9220   32.7553 C   0  0  0  0  0  0  0  0  0  0  0  0
    1.5472  -17.9479   30.6707 C   0  0  0  0  0  0  0  0  0  0  0  0
    2.0094  -18.7494   31.6818 C   0  0  0  0  0  0  0  0  0  0  0  0
    3.3865  -19.0387   31.8874 N   0  0  0  0  0  0  0  0  0  0  0  0
    3.8650  -19.2971   33.1902 C   0  0  0  0  0  0  0  0  0  0  0  0
    4.6336  -18.2641   33.9068 C   0  0  0  0  0  0  0  0  0  0  0  0
    4.4510  -16.9130   33.3122 C   0  0  0  0  0  0  0  0  0  0  0  0
    4.3511  -19.1056   30.4532 S   0  0  1  0  0  6  0  0  0  0  0  0
    5.4426  -20.0987   30.5182 O   0  0  0  0  0  0  0  0  0  0  0  0
    3.2984  -19.5380   29.0855 C   0  0  0  0  0  0  0  0  0  0  0  0
    4.9193  -17.7290   30.1392 O   0  0  0  0  0  0  0  0  0  0  0  0
    1.0298  -19.2724   32.4711 C   0  0  0  0  0  0  0  0  0  0  0  0
  1  2  1  1
 22  1  1  0
  1 23  1  0
  3  4  2  0
 25  3  1  0
  4  5  1  0
  4 32  1  0
  5 26  1  0
 26  6  1  0
  6 27  1  0
 27  7  1  0
  7 28  2  0
  7 31  1  0
 28  8  1  0
  8 29  2  0
 10  9  2  0
 11 10  1  0
 10 25  1  0
 12 11  1  0
 12 13  1  0
 12 14  1  6
 13 30  1  0
 15 14  1  0
 16 15  1  6
 16 17  1  0
 20 16  1  0
 17 18  1  0
 17 19  1  1
 21 20  1  0
 20 24  2  0
 21 22  1  0
 25 42  2  0
 29 30  1  0
 30 31  2  0
 32 33  2  0
 33 34  1  0
 33 42  1  0
 34 35  1  0
 34 38  1  0
 35 36  1  0
 36 37  1  0
 38 39  2  0
 38 40  1  6
 38 41  2  0
M  CHG  1  15   1
M  END
$$$$
