
     RDKit          3D

 42 44  0  0  0  0  0  0  0  0999 V2000
   -5.7728  -19.2064   40.7648 C   0  0  2  0  0  0  0  0  0  0  0  0
   -6.4669  -18.2666   39.8676 C   0  0  0  0  0  0  0  0  0  0  0  0
   -0.5623  -17.9714   31.2952 C   0  0  0  0  0  0  0  0  0  0  0  0
    0.3436  -17.3065   30.5226 C   0  0  0  0  0  0  0  0  0  0  0  0
    0.1272  -16.2609   29.4609 C   0  0  0  0  0  0  0  0  0  0  0  0
    0.0399  -14.2485   31.0129 C   0  0  0  0  0  0  0  0  0  0  0  0
   -2.1316  -14.5816   32.2669 C   0  0  0  0  0  0  0  0  0  0  0  0
   -4.4925  -14.6622   31.6050 C   0  0  0  0  0  0  0  0  0  0  0  0
   -0.5212  -20.8072   33.4079 O   0  0  0  0  0  0  0  0  0  0  0  0
   -0.9140  -19.5297   33.3442 C   0  0  0  0  0  0  0  0  0  0  0  0
   -1.9047  -19.2678   34.2656 N   0  0  0  0  0  0  0  0  0  0  0  0
   -3.1645  -18.5989   34.3409 C   0  0  1  0  0  0  0  0  0  0  0  0
   -3.7154  -17.9025   33.1828 C   0  0  0  0  0  0  0  0  0  0  0  0
   -4.2312  -19.5362   34.9799 C   0  0  0  0  0  0  0  0  0  0  0  0
   -3.5919  -20.7441   35.4317 N   0  0  0  0  0  4  0  0  0  0  0  0
   -3.0662  -20.5577   36.7822 C   0  0  2  0  0  0  0  0  0  0  0  0
   -2.0536  -21.5846   37.1729 C   0  0  1  0  0  0  0  0  0  0  0  0
   -2.5304  -22.8683   37.2926 O   0  0  0  0  0  0  0  0  0  0  0  0
   -0.8992  -21.5998   36.1683 C   0  0  0  0  0  0  0  0  0  0  0  0
   -4.2115  -20.6731   37.7767 C   0  0  0  0  0  0  0  0  0  0  0  0
   -4.3248  -19.8041   38.8768 N   0  0  0  0  0  0  0  0  0  0  0  0
   -4.7172  -20.0837   40.2158 C   0  0  0  0  0  0  0  0  0  0  0  0
   -6.8112  -20.0883   41.4864 C   0  0  0  0  0  0  0  0  0  0  0  0
   -5.0568  -21.5730   37.5784 O   0  0  0  0  0  0  0  0  0  0  0  0
   -0.1428  -18.7986   32.2976 C   0  0  0  0  0  0  0  0  0  0  0  0
   -0.6016  -15.0157   29.8783 C   0  0  0  0  0  0  0  0  0  0  0  0
   -0.9568  -13.6904   32.0037 C   0  0  0  0  0  0  0  0  0  0  0  0
   -3.2802  -14.0245   31.6599 C   0  0  0  0  0  0  0  0  0  0  0  0
   -4.5143  -15.8970   32.1844 C   0  0  0  0  0  0  0  0  0  0  0  0
   -3.3857  -16.5026   32.8090 C   0  0  0  0  0  0  0  0  0  0  0  0
   -2.1980  -15.8252   32.8475 C   0  0  0  0  0  0  0  0  0  0  0  0
    1.7251  -17.4880   30.7534 C   0  0  0  0  0  0  0  0  0  0  0  0
    2.2200  -18.3077   31.7340 C   0  0  0  0  0  0  0  0  0  0  0  0
    3.6091  -18.5150   31.9573 N   0  0  0  0  0  0  0  0  0  0  0  0
    4.1532  -18.3144   33.2444 C   0  0  0  0  0  0  0  0  0  0  0  0
    5.5451  -17.8522   33.3877 C   0  0  0  0  0  0  0  0  0  0  0  0
    5.8200  -17.3066   34.7438 C   0  0  0  0  0  0  0  0  0  0  0  0
    4.5042  -19.0720   30.5860 S   0  0  1  0  0  6  0  0  0  0  0  0
    5.9418  -18.7365   30.6399 O   0  0  0  0  0  0  0  0  0  0  0  0
    4.3584  -20.8431   30.4992 C   0  0  0  0  0  0  0  0  0  0  0  0
    3.8914  -18.5274   29.3037 O   0  0  0  0  0  0  0  0  0  0  0  0
    1.2623  -18.9343   32.4732 C   0  0  0  0  0  0  0  0  0  0  0  0
  1  2  1  6
 22  1  1  0
  1 23  1  0
  3  4  2  0
 25  3  1  0
  4  5  1  0
  4 32  1  0
  5 26  1  0
 26  6  1  0
  6 27  1  0
 27  7  1  0
  7 28  2  0
  7 31  1  0
 28  8  1  0
  8 29  2  0
 10  9  2  0
 11 10  1  0
 10 25  1  0
 12 11  1  0
 12 13  1  0
 12 14  1  6
 13 30  1  0
 15 14  1  0
 16 15  1  6
 16 17  1  0
 20 16  1  0
 17 18  1  0
 17 19  1  6
 21 20  1  0
 20 24  2  0
 21 22  1  0
 25 42  2  0
 29 30  1  0
 30 31  2  0
 32 33  2  0
 33 34  1  0
 33 42  1  0
 34 35  1  0
 34 38  1  0
 35 36  1  0
 36 37  1  0
 38 39  2  0
 38 40  1  6
 38 41  2  0
M  CHG  1  15   1
M  END
$$$$
