
     RDKit          3D

 42 44  0  0  0  0  0  0  0  0999 V2000
    0.4916  -21.2712   37.6948 C   0  0  2  0  0  0  0  0  0  0  0  0
    1.1942  -21.0646   36.4168 C   0  0  0  0  0  0  0  0  0  0  0  0
   -0.5713  -17.9667   31.2006 C   0  0  0  0  0  0  0  0  0  0  0  0
    0.3192  -17.6184   30.2281 C   0  0  0  0  0  0  0  0  0  0  0  0
    0.1191  -16.7972   28.9820 C   0  0  0  0  0  0  0  0  0  0  0  0
    0.4600  -14.5148   30.0500 C   0  0  0  0  0  0  0  0  0  0  0  0
   -1.5824  -14.2554   31.5197 C   0  0  0  0  0  0  0  0  0  0  0  0
   -3.9937  -14.1238   31.0874 C   0  0  0  0  0  0  0  0  0  0  0  0
   -0.6523  -20.2736   33.8798 O   0  0  0  0  0  0  0  0  0  0  0  0
   -0.8856  -18.9939   33.5662 C   0  0  0  0  0  0  0  0  0  0  0  0
   -1.7262  -18.4026   34.4841 N   0  0  0  0  0  0  0  0  0  0  0  0
   -2.8753  -17.5546   34.5116 C   0  0  1  0  0  0  0  0  0  0  0  0
   -3.4600  -17.0418   33.2766 C   0  0  0  0  0  0  0  0  0  0  0  0
   -3.9736  -18.1704   35.4278 C   0  0  0  0  0  0  0  0  0  0  0  0
   -4.4774  -19.3744   34.8209 N   0  0  0  0  0  4  0  0  0  0  0  0
   -3.8828  -20.5452   35.4620 C   0  0  2  0  0  0  0  0  0  0  0  0
   -4.8814  -21.4163   36.1521 C   0  0  1  0  0  0  0  0  0  0  0  0
   -5.8104  -22.0129   35.3332 O   0  0  0  0  0  0  0  0  0  0  0  0
   -4.1688  -22.5173   36.9411 C   0  0  0  0  0  0  0  0  0  0  0  0
   -2.9009  -20.0784   36.5259 C   0  0  0  0  0  0  0  0  0  0  0  0
   -1.7932  -20.8593   36.9022 N   0  0  0  0  0  0  0  0  0  0  0  0
   -0.8190  -20.6228   37.9122 C   0  0  0  0  0  0  0  0  0  0  0  0
    1.4238  -20.8860   38.8607 C   0  0  0  0  0  0  0  0  0  0  0  0
   -3.1134  -18.9661   37.0563 O   0  0  0  0  0  0  0  0  0  0  0  0
   -0.1501  -18.6190   32.3239 C   0  0  0  0  0  0  0  0  0  0  0  0
   -0.3957  -15.3989   29.1705 C   0  0  0  0  0  0  0  0  0  0  0  0
   -0.3414  -13.6217   30.9701 C   0  0  0  0  0  0  0  0  0  0  0  0
   -2.7122  -13.6743   30.9000 C   0  0  0  0  0  0  0  0  0  0  0  0
   -4.1061  -15.1935   31.9264 C   0  0  0  0  0  0  0  0  0  0  0  0
   -3.0002  -15.8149   32.5755 C   0  0  0  0  0  0  0  0  0  0  0  0
   -1.7398  -15.3269   32.3655 C   0  0  0  0  0  0  0  0  0  0  0  0
    1.6839  -17.9492   30.3799 C   0  0  0  0  0  0  0  0  0  0  0  0
    2.1779  -18.6099   31.4743 C   0  0  0  0  0  0  0  0  0  0  0  0
    3.5459  -18.9683   31.6239 N   0  0  0  0  0  0  0  0  0  0  0  0
    4.2572  -18.5676   32.7756 C   0  0  0  0  0  0  0  0  0  0  0  0
    4.6747  -17.1625   32.9271 C   0  0  0  0  0  0  0  0  0  0  0  0
    5.4525  -16.9380   34.1749 C   0  0  0  0  0  0  0  0  0  0  0  0
    4.1975  -19.9478   30.3558 S   0  0  1  0  0  6  0  0  0  0  0  0
    3.3769  -21.1355   30.0425 O   0  0  0  0  0  0  0  0  0  0  0  0
    4.3130  -18.9581   28.8817 C   0  0  0  0  0  0  0  0  0  0  0  0
    5.6176  -20.3736   30.6994 O   0  0  0  0  0  0  0  0  0  0  0  0
    1.2375  -18.9205   32.4099 C   0  0  0  0  0  0  0  0  0  0  0  0
  1  2  1  6
 22  1  1  0
  1 23  1  0
  3  4  2  0
 25  3  1  0
  4  5  1  0
  4 32  1  0
  5 26  1  0
 26  6  1  0
  6 27  1  0
 27  7  1  0
  7 28  2  0
  7 31  1  0
 28  8  1  0
  8 29  2  0
 10  9  2  0
 11 10  1  0
 10 25  1  0
 12 11  1  0
 12 13  1  0
 12 14  1  6
 13 30  1  0
 15 14  1  0
 16 15  1  1
 16 17  1  0
 20 16  1  0
 17 18  1  0
 17 19  1  6
 21 20  1  0
 20 24  2  0
 21 22  1  0
 25 42  2  0
 29 30  1  0
 30 31  2  0
 32 33  2  0
 33 34  1  0
 33 42  1  0
 34 35  1  0
 34 38  1  0
 35 36  1  0
 36 37  1  0
 38 39  2  0
 38 40  1  6
 38 41  2  0
M  CHG  1  15   1
M  END
$$$$
