
     RDKit          3D

 42 44  0  0  0  0  0  0  0  0999 V2000
   -5.3935  -20.5706   40.1462 C   0  0  2  0  0  0  0  0  0  0  0  0
   -6.6098  -20.8459   39.3623 C   0  0  0  0  0  0  0  0  0  0  0  0
   -0.8938  -17.9417   31.2495 C   0  0  0  0  0  0  0  0  0  0  0  0
   -0.0321  -17.2586   30.4428 C   0  0  0  0  0  0  0  0  0  0  0  0
   -0.3092  -16.2063   29.4022 C   0  0  0  0  0  0  0  0  0  0  0  0
   -0.3496  -14.2092   30.9757 C   0  0  0  0  0  0  0  0  0  0  0  0
   -2.4576  -14.5804   32.3239 C   0  0  0  0  0  0  0  0  0  0  0  0
   -4.8451  -14.6843   31.7694 C   0  0  0  0  0  0  0  0  0  0  0  0
   -0.7225  -20.7956   33.3309 O   0  0  0  0  0  0  0  0  0  0  0  0
   -1.1331  -19.5226   33.2973 C   0  0  0  0  0  0  0  0  0  0  0  0
   -2.0838  -19.2814   34.2653 N   0  0  0  0  0  0  0  0  0  0  0  0
   -3.3467  -18.6288   34.4042 C   0  0  1  0  0  0  0  0  0  0  0  0
   -3.9582  -17.9289   33.2790 C   0  0  0  0  0  0  0  0  0  0  0  0
   -4.3720  -19.5850   35.0821 C   0  0  0  0  0  0  0  0  0  0  0  0
   -3.6947  -20.7811   35.5090 N   0  0  0  0  0  4  0  0  0  0  0  0
   -2.4365  -20.4366   36.1674 C   0  0  2  0  0  0  0  0  0  0  0  0
   -1.5669  -21.6197   36.4439 C   0  0  1  0  0  0  0  0  0  0  0  0
   -0.5614  -21.4126   37.3580 O   0  0  0  0  0  0  0  0  0  0  0  0
   -2.4137  -22.7982   36.9299 C   0  0  0  0  0  0  0  0  0  0  0  0
   -2.7440  -19.7966   37.5127 C   0  0  0  0  0  0  0  0  0  0  0  0
   -3.6902  -20.3492   38.3946 N   0  0  0  0  0  0  0  0  0  0  0  0
   -4.3078  -19.7717   39.5392 C   0  0  0  0  0  0  0  0  0  0  0  0
   -4.7959  -21.8997   40.6495 C   0  0  0  0  0  0  0  0  0  0  0  0
   -2.1190  -18.7552   37.8105 O   0  0  0  0  0  0  0  0  0  0  0  0
   -0.4191  -18.7726   32.2237 C   0  0  0  0  0  0  0  0  0  0  0  0
   -1.0330  -14.9740   29.8642 C   0  0  0  0  0  0  0  0  0  0  0  0
   -1.3067  -13.6724   32.0161 C   0  0  0  0  0  0  0  0  0  0  0  0
   -3.6393  -14.0322   31.7751 C   0  0  0  0  0  0  0  0  0  0  0  0
   -4.8257  -15.9245   32.3373 C   0  0  0  0  0  0  0  0  0  0  0  0
   -3.6626  -16.5216   32.9041 C   0  0  0  0  0  0  0  0  0  0  0  0
   -2.4826  -15.8300   32.8950 C   0  0  0  0  0  0  0  0  0  0  0  0
    1.3606  -17.4251   30.6089 C   0  0  0  0  0  0  0  0  0  0  0  0
    1.9094  -18.2474   31.5580 C   0  0  0  0  0  0  0  0  0  0  0  0
    3.3096  -18.4395   31.7159 N   0  0  0  0  0  0  0  0  0  0  0  0
    4.1088  -17.3996   32.2384 C   0  0  0  0  0  0  0  0  0  0  0  0
    4.9443  -17.6442   33.4273 C   0  0  0  0  0  0  0  0  0  0  0  0
    5.7616  -16.4570   33.7946 C   0  0  0  0  0  0  0  0  0  0  0  0
    3.8938  -20.0111   31.2907 S   0  0  1  0  0  6  0  0  0  0  0  0
    3.2370  -21.1082   32.0304 O   0  0  0  0  0  0  0  0  0  0  0  0
    3.6024  -20.2702   29.5548 C   0  0  0  0  0  0  0  0  0  0  0  0
    5.4013  -20.0810   31.4882 O   0  0  0  0  0  0  0  0  0  0  0  0
    0.9940  -18.8925   32.3340 C   0  0  0  0  0  0  0  0  0  0  0  0
  1  2  1  6
 22  1  1  0
  1 23  1  0
  3  4  2  0
 25  3  1  0
  4  5  1  0
  4 32  1  0
  5 26  1  0
 26  6  1  0
  6 27  1  0
 27  7  1  0
  7 28  2  0
  7 31  1  0
 28  8  1  0
  8 29  2  0
 10  9  2  0
 11 10  1  0
 10 25  1  0
 12 11  1  0
 12 13  1  0
 12 14  1  6
 13 30  1  0
 15 14  1  0
 16 15  1  1
 16 17  1  0
 20 16  1  0
 17 18  1  0
 17 19  1  1
 21 20  1  0
 20 24  2  0
 21 22  1  0
 25 42  2  0
 29 30  1  0
 30 31  2  0
 32 33  2  0
 33 34  1  0
 33 42  1  0
 34 35  1  0
 34 38  1  0
 35 36  1  0
 36 37  1  0
 38 39  2  0
 38 40  1  6
 38 41  2  0
M  CHG  1  15   1
M  END
$$$$
