
     RDKit          3D

 42 44  0  0  0  0  0  0  0  0999 V2000
    0.4548  -22.5099   37.1543 C   0  0  2  0  0  0  0  0  0  0  0  0
    0.1932  -23.3775   38.3156 C   0  0  0  0  0  0  0  0  0  0  0  0
   -0.5840  -18.3454   31.2855 C   0  0  0  0  0  0  0  0  0  0  0  0
    0.4142  -18.0294   30.4116 C   0  0  0  0  0  0  0  0  0  0  0  0
    0.3621  -17.2514   29.1235 C   0  0  0  0  0  0  0  0  0  0  0  0
    0.5832  -14.9335   30.1454 C   0  0  0  0  0  0  0  0  0  0  0  0
   -1.6152  -14.6266   31.3587 C   0  0  0  0  0  0  0  0  0  0  0  0
   -3.9597  -14.5128   30.6455 C   0  0  0  0  0  0  0  0  0  0  0  0
   -0.9814  -20.5596   34.0142 O   0  0  0  0  0  0  0  0  0  0  0  0
   -1.1732  -19.2917   33.6323 C   0  0  0  0  0  0  0  0  0  0  0  0
   -2.1130  -18.6704   34.4259 N   0  0  0  0  0  0  0  0  0  0  0  0
   -3.2551  -17.8234   34.2911 C   0  0  1  0  0  0  0  0  0  0  0  0
   -3.6913  -17.3538   32.9799 C   0  0  0  0  0  0  0  0  0  0  0  0
   -4.4540  -18.4089   35.0941 C   0  0  0  0  0  0  0  0  0  0  0  0
   -4.4341  -19.8448   34.9968 N   0  0  0  0  0  4  0  0  0  0  0  0
   -3.9452  -20.4249   36.2457 C   0  0  2  0  0  0  0  0  0  0  0  0
   -4.5756  -19.8319   37.4635 C   0  0  1  0  0  0  0  0  0  0  0  0
   -5.3345  -18.7064   37.2469 O   0  0  0  0  0  0  0  0  0  0  0  0
   -5.4563  -20.8696   38.1634 C   0  0  0  0  0  0  0  0  0  0  0  0
   -2.4505  -20.1653   36.3571 C   0  0  0  0  0  0  0  0  0  0  0  0
   -1.5279  -21.2156   36.5125 N   0  0  0  0  0  0  0  0  0  0  0  0
   -0.2177  -21.1962   37.0674 C   0  0  0  0  0  0  0  0  0  0  0  0
    0.1671  -23.2900   35.8561 C   0  0  0  0  0  0  0  0  0  0  0  0
   -2.0676  -18.9761   36.3024 O   0  0  0  0  0  0  0  0  0  0  0  0
   -0.2977  -18.9585   32.4716 C   0  0  0  0  0  0  0  0  0  0  0  0
   -0.1672  -15.8481   29.2033 C   0  0  0  0  0  0  0  0  0  0  0  0
   -0.3171  -14.0105   30.9355 C   0  0  0  0  0  0  0  0  0  0  0  0
   -2.6639  -14.0684   30.5928 C   0  0  0  0  0  0  0  0  0  0  0  0
   -4.1715  -15.5534   31.5018 C   0  0  0  0  0  0  0  0  0  0  0  0
   -3.1500  -16.1509   32.2955 C   0  0  0  0  0  0  0  0  0  0  0  0
   -1.8725  -15.6688   32.2165 C   0  0  0  0  0  0  0  0  0  0  0  0
    1.7511  -18.3531   30.7317 C   0  0  0  0  0  0  0  0  0  0  0  0
    2.1131  -18.9756   31.8979 C   0  0  0  0  0  0  0  0  0  0  0  0
    3.4536  -19.3270   32.2171 N   0  0  0  0  0  0  0  0  0  0  0  0
    3.7575  -20.6418   32.6315 C   0  0  0  0  0  0  0  0  0  0  0  0
    3.8122  -20.9631   34.0686 C   0  0  0  0  0  0  0  0  0  0  0  0
    4.0726  -22.4070   34.3128 C   0  0  0  0  0  0  0  0  0  0  0  0
    4.6213  -18.0704   31.9946 S   0  0  1  0  0  6  0  0  0  0  0  0
    4.0251  -16.7288   31.8305 O   0  0  0  0  0  0  0  0  0  0  0  0
    5.6819  -18.0271   33.4225 C   0  0  0  0  0  0  0  0  0  0  0  0
    5.5154  -18.3904   30.8052 O   0  0  0  0  0  0  0  0  0  0  0  0
    1.0697  -19.2552   32.7281 C   0  0  0  0  0  0  0  0  0  0  0  0
  1  2  1  1
 22  1  1  0
  1 23  1  0
  3  4  2  0
 25  3  1  0
  4  5  1  0
  4 32  1  0
  5 26  1  0
 26  6  1  0
  6 27  1  0
 27  7  1  0
  7 28  2  0
  7 31  1  0
 28  8  1  0
  8 29  2  0
 10  9  2  0
 11 10  1  0
 10 25  1  0
 12 11  1  0
 12 13  1  0
 12 14  1  6
 13 30  1  0
 15 14  1  0
 16 15  1  6
 16 17  1  0
 20 16  1  0
 17 18  1  0
 17 19  1  6
 21 20  1  0
 20 24  2  0
 21 22  1  0
 25 42  2  0
 29 30  1  0
 30 31  2  0
 32 33  2  0
 33 34  1  0
 33 42  1  0
 34 35  1  0
 34 38  1  0
 35 36  1  0
 36 37  1  0
 38 39  2  0
 38 40  1  1
 38 41  2  0
M  CHG  1  15   1
M  END
$$$$
