
     RDKit          3D

 42 44  0  0  0  0  0  0  0  0999 V2000
   -5.2429  -16.2500   37.9940 C   0  0  2  0  0  0  0  0  0  0  0  0
   -6.1160  -16.1269   36.8141 C   0  0  0  0  0  0  0  0  0  0  0  0
    0.4630  -18.4270   31.0454 C   0  0  0  0  0  0  0  0  0  0  0  0
    1.5612  -17.9199   30.4157 C   0  0  0  0  0  0  0  0  0  0  0  0
    1.6638  -17.1162   29.1465 C   0  0  0  0  0  0  0  0  0  0  0  0
    1.2592  -14.8312   30.1861 C   0  0  0  0  0  0  0  0  0  0  0  0
   -1.1721  -14.9348   30.8770 C   0  0  0  0  0  0  0  0  0  0  0  0
   -3.2862  -15.1849   29.6580 C   0  0  0  0  0  0  0  0  0  0  0  0
   -0.1463  -20.7713   33.6221 O   0  0  0  0  0  0  0  0  0  0  0  0
   -0.4606  -19.5399   33.2038 C   0  0  0  0  0  0  0  0  0  0  0  0
   -1.6434  -19.1108   33.7659 N   0  0  0  0  0  0  0  0  0  0  0  0
   -2.8540  -18.4600   33.3773 C   0  0  1  0  0  0  0  0  0  0  0  0
   -3.0632  -18.0230   32.0006 C   0  0  0  0  0  0  0  0  0  0  0  0
   -4.0838  -19.2635   33.8939 C   0  0  0  0  0  0  0  0  0  0  0  0
   -3.6249  -20.4202   34.6172 N   0  0  0  0  0  4  0  0  0  0  0  0
   -3.3952  -20.0761   36.0187 C   0  0  2  0  0  0  0  0  0  0  0  0
   -3.9132  -21.1006   36.9749 C   0  0  1  0  0  0  0  0  0  0  0  0
   -3.6870  -22.4088   36.6184 O   0  0  0  0  0  0  0  0  0  0  0  0
   -3.3144  -20.8783   38.3657 C   0  0  0  0  0  0  0  0  0  0  0  0
   -4.1233  -18.7779   36.3325 C   0  0  0  0  0  0  0  0  0  0  0  0
   -4.8957  -18.6274   37.4983 N   0  0  0  0  0  0  0  0  0  0  0  0
   -4.8667  -17.5954   38.4777 C   0  0  0  0  0  0  0  0  0  0  0  0
   -5.8564  -15.4647   39.1703 C   0  0  0  0  0  0  0  0  0  0  0  0
   -4.0078  -17.8409   35.5125 O   0  0  0  0  0  0  0  0  0  0  0  0
    0.5801  -19.0259   32.2671 C   0  0  0  0  0  0  0  0  0  0  0  0
    0.9006  -15.8234   29.1025 C   0  0  0  0  0  0  0  0  0  0  0  0
    0.0642  -14.0981   30.7528 C   0  0  0  0  0  0  0  0  0  0  0  0
   -2.1049  -14.5309   29.8948 C   0  0  0  0  0  0  0  0  0  0  0  0
   -3.5027  -16.2758   30.4480 C   0  0  0  0  0  0  0  0  0  0  0  0
   -2.5955  -16.7238   31.4513 C   0  0  0  0  0  0  0  0  0  0  0  0
   -1.4323  -16.0348   31.6584 C   0  0  0  0  0  0  0  0  0  0  0  0
    2.8296  -18.0293   31.0271 C   0  0  0  0  0  0  0  0  0  0  0  0
    3.0254  -18.6241   32.2462 C   0  0  0  0  0  0  0  0  0  0  0  0
    4.3021  -18.7601   32.8577 N   0  0  0  0  0  0  0  0  0  0  0  0
    4.4507  -18.5156   34.2401 C   0  0  0  0  0  0  0  0  0  0  0  0
    4.2865  -19.6202   35.2015 C   0  0  0  0  0  0  0  0  0  0  0  0
    4.6806  -20.9327   34.6233 C   0  0  0  0  0  0  0  0  0  0  0  0
    5.5718  -19.2915   31.8100 S   0  0  1  0  0  6  0  0  0  0  0  0
    5.1079  -20.1609   30.7095 O   0  0  0  0  0  0  0  0  0  0  0  0
    6.3435  -17.8599   31.0885 C   0  0  0  0  0  0  0  0  0  0  0  0
    6.6514  -20.0021   32.6136 O   0  0  0  0  0  0  0  0  0  0  0  0
    1.8872  -19.1014   32.8232 C   0  0  0  0  0  0  0  0  0  0  0  0
  1  2  1  6
 22  1  1  0
  1 23  1  0
  3  4  2  0
 25  3  1  0
  4  5  1  0
  4 32  1  0
  5 26  1  0
 26  6  1  0
  6 27  1  0
 27  7  1  0
  7 28  2  0
  7 31  1  0
 28  8  1  0
  8 29  2  0
 10  9  2  0
 11 10  1  0
 10 25  1  0
 12 11  1  0
 12 13  1  0
 12 14  1  6
 13 30  1  0
 15 14  1  0
 16 15  1  6
 16 17  1  0
 20 16  1  0
 17 18  1  0
 17 19  1  1
 21 20  1  0
 20 24  2  0
 21 22  1  0
 25 42  2  0
 29 30  1  0
 30 31  2  0
 32 33  2  0
 33 34  1  0
 33 42  1  0
 34 35  1  0
 34 38  1  0
 35 36  1  0
 36 37  1  0
 38 39  2  0
 38 40  1  6
 38 41  2  0
M  CHG  1  15   1
M  END
$$$$
