
     RDKit          3D

 42 44  0  0  0  0  0  0  0  0999 V2000
   -4.9485  -20.2541   40.9305 C   0  0  2  0  0  0  0  0  0  0  0  0
   -6.3001  -20.7612   40.6378 C   0  0  0  0  0  0  0  0  0  0  0  0
    1.0681  -17.3474   33.3318 C   0  0  0  0  0  0  0  0  0  0  0  0
    1.8982  -16.6127   32.5373 C   0  0  0  0  0  0  0  0  0  0  0  0
    3.4007  -16.5142   32.5374 C   0  0  0  0  0  0  0  0  0  0  0  0
    3.8497  -18.5357   31.0616 C   0  0  0  0  0  0  0  0  0  0  0  0
    3.1721  -20.4820   32.5285 C   0  0  0  0  0  0  0  0  0  0  0  0
    3.9822  -21.3753   34.6649 C   0  0  0  0  0  0  0  0  0  0  0  0
   -2.3993  -17.4196   34.0235 O   0  0  0  0  0  0  0  0  0  0  0  0
   -1.3577  -18.1982   33.7085 C   0  0  0  0  0  0  0  0  0  0  0  0
   -1.5977  -19.5115   34.0499 N   0  0  0  0  0  0  0  0  0  0  0  0
   -0.9323  -20.6048   34.6840 C   0  0  1  0  0  0  0  0  0  0  0  0
    0.4415  -20.4744   35.1590 C   0  0  0  0  0  0  0  0  0  0  0  0
   -1.8423  -21.2174   35.7892 C   0  0  0  0  0  0  0  0  0  0  0  0
   -3.1809  -21.3563   35.2785 N   0  0  0  0  0  4  0  0  0  0  0  0
   -4.1108  -20.5757   36.0916 C   0  0  2  0  0  0  0  0  0  0  0  0
   -4.4946  -19.2725   35.4699 C   0  0  1  0  0  0  0  0  0  0  0  0
   -3.6004  -18.2447   35.6537 O   0  0  0  0  0  0  0  0  0  0  0  0
   -4.7132  -19.4469   33.9652 C   0  0  0  0  0  0  0  0  0  0  0  0
   -3.4470  -20.2473   37.4203 C   0  0  0  0  0  0  0  0  0  0  0  0
   -4.0849  -20.5019   38.6477 N   0  0  0  0  0  0  0  0  0  0  0  0
   -4.1265  -19.7096   39.8290 C   0  0  0  0  0  0  0  0  0  0  0  0
   -4.1345  -21.3485   41.6492 C   0  0  0  0  0  0  0  0  0  0  0  0
   -2.3039  -19.7415   37.3826 O   0  0  0  0  0  0  0  0  0  0  0  0
   -0.2734  -17.3894   33.0799 C   0  0  0  0  0  0  0  0  0  0  0  0
    4.1612  -17.7947   32.3427 C   0  0  0  0  0  0  0  0  0  0  0  0
    3.7799  -20.0364   31.2340 C   0  0  0  0  0  0  0  0  0  0  0  0
    4.1882  -21.0028   33.3618 C   0  0  0  0  0  0  0  0  0  0  0  0
    2.7053  -21.2023   35.1126 C   0  0  0  0  0  0  0  0  0  0  0  0
    1.6460  -20.6823   34.3138 C   0  0  0  0  0  0  0  0  0  0  0  0
    1.8961  -20.3316   33.0157 C   0  0  0  0  0  0  0  0  0  0  0  0
    1.3618  -15.8793   31.4561 C   0  0  0  0  0  0  0  0  0  0  0  0
    0.0264  -15.8665   31.1481 C   0  0  0  0  0  0  0  0  0  0  0  0
   -0.5252  -15.1117   30.0764 N   0  0  0  0  0  0  0  0  0  0  0  0
   -0.8589  -13.7537   30.2699 C   0  0  0  0  0  0  0  0  0  0  0  0
   -2.2742  -13.3450   30.3068 C   0  0  0  0  0  0  0  0  0  0  0  0
   -2.7366  -13.0417   31.6876 C   0  0  0  0  0  0  0  0  0  0  0  0
   -0.6753  -15.9580   28.5753 S   0  0  1  0  0  6  0  0  0  0  0  0
   -1.7797  -15.4675   27.7258 O   0  0  0  0  0  0  0  0  0  0  0  0
    0.8417  -15.7659   27.6657 C   0  0  0  0  0  0  0  0  0  0  0  0
   -0.8380  -17.4498   28.8288 O   0  0  0  0  0  0  0  0  0  0  0  0
   -0.7443  -16.6267   31.9754 C   0  0  0  0  0  0  0  0  0  0  0  0
  1  2  1  6
 22  1  1  0
  1 23  1  0
  3  4  2  0
 25  3  1  0
  4  5  1  0
  4 32  1  0
  5 26  1  0
 26  6  1  0
  6 27  1  0
 27  7  1  0
  7 28  2  0
  7 31  1  0
 28  8  1  0
  8 29  2  0
 10  9  2  0
 11 10  1  0
 10 25  1  0
 12 11  1  0
 12 13  1  0
 12 14  1  1
 13 30  1  0
 15 14  1  0
 16 15  1  6
 16 17  1  0
 20 16  1  0
 17 18  1  0
 17 19  1  6
 21 20  1  0
 20 24  2  0
 21 22  1  0
 25 42  2  0
 29 30  1  0
 30 31  2  0
 32 33  2  0
 33 34  1  0
 33 42  1  0
 34 35  1  0
 34 38  1  0
 35 36  1  0
 36 37  1  0
 38 39  2  0
 38 40  1  6
 38 41  2  0
M  CHG  1  15   1
M  END
$$$$
