
     RDKit          3D

 42 44  0  0  0  0  0  0  0  0999 V2000
   -5.7521  -19.5430   40.3422 C   0  0  2  0  0  0  0  0  0  0  0  0
   -6.4964  -18.6570   39.4308 C   0  0  0  0  0  0  0  0  0  0  0  0
   -0.4482  -18.1375   30.9917 C   0  0  0  0  0  0  0  0  0  0  0  0
    0.4295  -17.4316   30.2228 C   0  0  0  0  0  0  0  0  0  0  0  0
    0.1736  -16.3456   29.2116 C   0  0  0  0  0  0  0  0  0  0  0  0
    0.1098  -14.3998   30.8474 C   0  0  0  0  0  0  0  0  0  0  0  0
   -2.0229  -14.8077   32.1452 C   0  0  0  0  0  0  0  0  0  0  0  0
   -4.4003  -14.8866   31.5451 C   0  0  0  0  0  0  0  0  0  0  0  0
   -0.3212  -21.0571   32.9832 O   0  0  0  0  0  0  0  0  0  0  0  0
   -0.7280  -19.7824   32.9832 C   0  0  0  0  0  0  0  0  0  0  0  0
   -1.6953  -19.5694   33.9413 N   0  0  0  0  0  0  0  0  0  0  0  0
   -2.9589  -18.9178   34.0785 C   0  0  1  0  0  0  0  0  0  0  0  0
   -3.5485  -18.1805   32.9656 C   0  0  0  0  0  0  0  0  0  0  0  0
   -3.9984  -19.8921   34.7070 C   0  0  0  0  0  0  0  0  0  0  0  0
   -4.2567  -19.4976   36.0670 N   0  0  0  0  0  4  0  0  0  0  0  0
   -3.3604  -20.2108   36.9743 C   0  0  2  0  0  0  0  0  0  0  0  0
   -2.2576  -20.9350   36.2731 C   0  0  1  0  0  0  0  0  0  0  0  0
   -1.0295  -20.3187   36.3102 O   0  0  0  0  0  0  0  0  0  0  0  0
   -2.0983  -22.3439   36.8491 C   0  0  0  0  0  0  0  0  0  0  0  0
   -4.1598  -21.2602   37.7318 C   0  0  0  0  0  0  0  0  0  0  0  0
   -4.3772  -21.1646   39.1182 N   0  0  0  0  0  0  0  0  0  0  0  0
   -4.4054  -20.0131   39.9537 C   0  0  0  0  0  0  0  0  0  0  0  0
   -6.6171  -20.7732   40.6817 C   0  0  0  0  0  0  0  0  0  0  0  0
   -4.6227  -22.2169   37.0729 O   0  0  0  0  0  0  0  0  0  0  0  0
    0.0069  -19.0006   31.9471 C   0  0  0  0  0  0  0  0  0  0  0  0
   -0.5554  -15.1266   29.6999 C   0  0  0  0  0  0  0  0  0  0  0  0
   -0.8645  -13.8937   31.8872 C   0  0  0  0  0  0  0  0  0  0  0  0
   -3.1932  -14.2386   31.5933 C   0  0  0  0  0  0  0  0  0  0  0  0
   -4.3940  -16.1444   32.0733 C   0  0  0  0  0  0  0  0  0  0  0  0
   -3.2427  -16.7628   32.6413 C   0  0  0  0  0  0  0  0  0  0  0  0
   -2.0611  -16.0748   32.6754 C   0  0  0  0  0  0  0  0  0  0  0  0
    1.8185  -17.6074   30.4082 C   0  0  0  0  0  0  0  0  0  0  0  0
    2.3482  -18.4613   31.3402 C   0  0  0  0  0  0  0  0  0  0  0  0
    3.7450  -18.6626   31.5168 N   0  0  0  0  0  0  0  0  0  0  0  0
    4.3186  -18.5325   32.8001 C   0  0  0  0  0  0  0  0  0  0  0  0
    4.6447  -17.1946   33.3248 C   0  0  0  0  0  0  0  0  0  0  0  0
    5.5361  -17.2585   34.5138 C   0  0  0  0  0  0  0  0  0  0  0  0
    4.6122  -19.1236   30.0930 S   0  0  1  0  0  6  0  0  0  0  0  0
    3.8073  -19.9112   29.1370 O   0  0  0  0  0  0  0  0  0  0  0  0
    5.1583  -17.6477   29.2628 C   0  0  0  0  0  0  0  0  0  0  0  0
    5.8694  -19.8935   30.4714 O   0  0  0  0  0  0  0  0  0  0  0  0
    1.4176  -19.1282   32.0786 C   0  0  0  0  0  0  0  0  0  0  0  0
  1  2  1  6
 22  1  1  0
  1 23  1  0
  3  4  2  0
 25  3  1  0
  4  5  1  0
  4 32  1  0
  5 26  1  0
 26  6  1  0
  6 27  1  0
 27  7  1  0
  7 28  2  0
  7 31  1  0
 28  8  1  0
  8 29  2  0
 10  9  2  0
 11 10  1  0
 10 25  1  0
 12 11  1  0
 12 13  1  0
 12 14  1  6
 13 30  1  0
 15 14  1  0
 16 15  1  6
 16 17  1  0
 20 16  1  0
 17 18  1  0
 17 19  1  1
 21 20  1  0
 20 24  2  0
 21 22  1  0
 25 42  2  0
 29 30  1  0
 30 31  2  0
 32 33  2  0
 33 34  1  0
 33 42  1  0
 34 35  1  0
 34 38  1  0
 35 36  1  0
 36 37  1  0
 38 39  2  0
 38 40  1  6
 38 41  2  0
M  CHG  1  15   1
M  END
$$$$
