
     RDKit          3D

 42 44  0  0  0  0  0  0  0  0999 V2000
   -3.7824  -20.3271   41.0234 C   0  0  2  0  0  0  0  0  0  0  0  0
   -2.4155  -19.7947   40.8895 C   0  0  0  0  0  0  0  0  0  0  0  0
   -0.3105  -18.1294   31.2415 C   0  0  0  0  0  0  0  0  0  0  0  0
    0.6687  -17.4744   30.5544 C   0  0  0  0  0  0  0  0  0  0  0  0
    0.5644  -16.3559   29.5518 C   0  0  0  0  0  0  0  0  0  0  0  0
    0.5146  -14.4387   31.2215 C   0  0  0  0  0  0  0  0  0  0  0  0
   -1.7316  -14.7167   32.3513 C   0  0  0  0  0  0  0  0  0  0  0  0
   -4.0577  -14.6169   31.5783 C   0  0  0  0  0  0  0  0  0  0  0  0
   -0.5341  -21.0844   33.1715 O   0  0  0  0  0  0  0  0  0  0  0  0
   -0.8504  -19.7843   33.1703 C   0  0  0  0  0  0  0  0  0  0  0  0
   -1.8690  -19.5198   34.0599 N   0  0  0  0  0  0  0  0  0  0  0  0
   -3.0911  -18.7828   34.1194 C   0  0  1  0  0  0  0  0  0  0  0  0
   -3.5440  -17.9866   32.9833 C   0  0  0  0  0  0  0  0  0  0  0  0
   -4.2394  -19.6917   34.6488 C   0  0  0  0  0  0  0  0  0  0  0  0
   -3.6993  -20.9755   35.0118 N   0  0  0  0  0  4  0  0  0  0  0  0
   -3.2185  -20.9449   36.3913 C   0  0  2  0  0  0  0  0  0  0  0  0
   -2.8999  -22.2976   36.9400 C   0  0  1  0  0  0  0  0  0  0  0  0
   -2.6566  -23.2728   36.0022 O   0  0  0  0  0  0  0  0  0  0  0  0
   -1.6862  -22.2204   37.8691 C   0  0  0  0  0  0  0  0  0  0  0  0
   -4.3059  -20.3585   37.2787 C   0  0  0  0  0  0  0  0  0  0  0  0
   -4.0500  -19.9816   38.6095 N   0  0  0  0  0  0  0  0  0  0  0  0
   -4.6235  -20.4712   39.8163 C   0  0  0  0  0  0  0  0  0  0  0  0
   -4.5592  -19.4912   42.0601 C   0  0  0  0  0  0  0  0  0  0  0  0
   -5.4437  -20.2196   36.7787 O   0  0  0  0  0  0  0  0  0  0  0  0
    0.0116  -19.0388   32.2080 C   0  0  0  0  0  0  0  0  0  0  0  0
   -0.1125  -15.0969   30.0128 C   0  0  0  0  0  0  0  0  0  0  0  0
   -0.4966  -13.8828   32.1987 C   0  0  0  0  0  0  0  0  0  0  0  0
   -2.8155  -14.0569   31.7286 C   0  0  0  0  0  0  0  0  0  0  0  0
   -4.1778  -15.8808   32.0774 C   0  0  0  0  0  0  0  0  0  0  0  0
   -3.1175  -16.5888   32.7137 C   0  0  0  0  0  0  0  0  0  0  0  0
   -1.8967  -15.9869   32.8490 C   0  0  0  0  0  0  0  0  0  0  0  0
    2.0246  -17.7513   30.8364 C   0  0  0  0  0  0  0  0  0  0  0  0
    2.4233  -18.6564   31.7852 C   0  0  0  0  0  0  0  0  0  0  0  0
    3.7858  -18.9590   32.0583 N   0  0  0  0  0  0  0  0  0  0  0  0
    4.2778  -18.8623   33.3780 C   0  0  0  0  0  0  0  0  0  0  0  0
    4.5448  -17.5375   33.9654 C   0  0  0  0  0  0  0  0  0  0  0  0
    5.1410  -17.6344   35.3246 C   0  0  0  0  0  0  0  0  0  0  0  0
    4.7123  -19.4931   30.6989 S   0  0  1  0  0  6  0  0  0  0  0  0
    5.8380  -20.3792   31.0596 O   0  0  0  0  0  0  0  0  0  0  0  0
    3.6377  -20.3923   29.6024 C   0  0  0  0  0  0  0  0  0  0  0  0
    5.2253  -18.2961   29.9113 O   0  0  0  0  0  0  0  0  0  0  0  0
    1.3964  -19.2682   32.4389 C   0  0  0  0  0  0  0  0  0  0  0  0
  1  2  1  6
 22  1  1  0
  1 23  1  0
  3  4  2  0
 25  3  1  0
  4  5  1  0
  4 32  1  0
  5 26  1  0
 26  6  1  0
  6 27  1  0
 27  7  1  0
  7 28  2  0
  7 31  1  0
 28  8  1  0
  8 29  2  0
 10  9  2  0
 11 10  1  0
 10 25  1  0
 12 11  1  0
 12 13  1  0
 12 14  1  6
 13 30  1  0
 15 14  1  0
 16 15  1  6
 16 17  1  0
 20 16  1  0
 17 18  1  0
 17 19  1  1
 21 20  1  0
 20 24  2  0
 21 22  1  0
 25 42  2  0
 29 30  1  0
 30 31  2  0
 32 33  2  0
 33 34  1  0
 33 42  1  0
 34 35  1  0
 34 38  1  0
 35 36  1  0
 36 37  1  0
 38 39  2  0
 38 40  1  6
 38 41  2  0
M  CHG  1  15   1
M  END
$$$$
