
     RDKit          3D

 42 44  0  0  0  0  0  0  0  0999 V2000
   -1.6727  -15.5925   35.6500 C   0  0  2  0  0  0  0  0  0  0  0  0
   -1.2266  -14.4809   36.5074 C   0  0  0  0  0  0  0  0  0  0  0  0
   -0.6460  -18.0170   30.9040 C   0  0  0  0  0  0  0  0  0  0  0  0
    0.3555  -17.5309   30.1162 C   0  0  0  0  0  0  0  0  0  0  0  0
    0.2841  -16.6872   28.8712 C   0  0  0  0  0  0  0  0  0  0  0  0
    0.1573  -14.4266   30.0286 C   0  0  0  0  0  0  0  0  0  0  0  0
   -2.1299  -14.4597   31.1088 C   0  0  0  0  0  0  0  0  0  0  0  0
   -4.4243  -14.5834   30.2494 C   0  0  0  0  0  0  0  0  0  0  0  0
   -0.9280  -20.4260   33.4776 O   0  0  0  0  0  0  0  0  0  0  0  0
   -1.2517  -19.1691   33.1526 C   0  0  0  0  0  0  0  0  0  0  0  0
   -2.3060  -18.7145   33.9146 N   0  0  0  0  0  0  0  0  0  0  0  0
   -3.5338  -18.0035   33.7503 C   0  0  1  0  0  0  0  0  0  0  0  0
   -3.9463  -17.5098   32.4404 C   0  0  0  0  0  0  0  0  0  0  0  0
   -4.6967  -18.7762   34.4399 C   0  0  0  0  0  0  0  0  0  0  0  0
   -4.1472  -19.7581   35.3376 N   0  0  0  0  0  4  0  0  0  0  0  0
   -2.7132  -19.9073   35.0999 C   0  0  2  0  0  0  0  0  0  0  0  0
   -2.1251  -21.1160   35.7522 C   0  0  1  0  0  0  0  0  0  0  0  0
   -2.8333  -22.2819   35.5826 O   0  0  0  0  0  0  0  0  0  0  0  0
   -0.6994  -21.3500   35.2475 C   0  0  0  0  0  0  0  0  0  0  0  0
   -1.9899  -18.7018   35.6810 C   0  0  0  0  0  0  0  0  0  0  0  0
   -1.1815  -17.8708   34.8844 N   0  0  0  0  0  0  0  0  0  0  0  0
   -0.6780  -16.5676   35.1548 C   0  0  0  0  0  0  0  0  0  0  0  0
   -2.4452  -15.0293   34.4405 C   0  0  0  0  0  0  0  0  0  0  0  0
   -2.1427  -18.4722   36.9007 O   0  0  0  0  0  0  0  0  0  0  0  0
   -0.3568  -18.6631   32.0719 C   0  0  0  0  0  0  0  0  0  0  0  0
   -0.4178  -15.3648   28.9911 C   0  0  0  0  0  0  0  0  0  0  0  0
   -0.8948  -13.6681   30.8059 C   0  0  0  0  0  0  0  0  0  0  0  0
   -3.1923  -13.9849   30.3063 C   0  0  0  0  0  0  0  0  0  0  0  0
   -4.5565  -15.6925   31.0326 C   0  0  0  0  0  0  0  0  0  0  0  0
   -3.5178  -16.2111   31.8589 C   0  0  0  0  0  0  0  0  0  0  0  0
   -2.3070  -15.5758   31.8905 C   0  0  0  0  0  0  0  0  0  0  0  0
    1.7009  -17.7115   30.5061 C   0  0  0  0  0  0  0  0  0  0  0  0
    2.0673  -18.3566   31.6585 C   0  0  0  0  0  0  0  0  0  0  0  0
    3.4197  -18.5642   32.0463 N   0  0  0  0  0  0  0  0  0  0  0  0
    4.4376  -17.7390   31.5211 C   0  0  0  0  0  0  0  0  0  0  0  0
    4.8687  -17.9074   30.1221 C   0  0  0  0  0  0  0  0  0  0  0  0
    5.8811  -16.8949   29.7194 C   0  0  0  0  0  0  0  0  0  0  0  0
    3.6714  -19.8158   33.2133 S   0  0  1  0  0  6  0  0  0  0  0  0
    5.0319  -20.3904   33.1829 O   0  0  0  0  0  0  0  0  0  0  0  0
    3.4001  -19.1370   34.8354 C   0  0  0  0  0  0  0  0  0  0  0  0
    2.6379  -20.9181   33.0308 O   0  0  0  0  0  0  0  0  0  0  0  0
    1.0191  -18.8094   32.4018 C   0  0  0  0  0  0  0  0  0  0  0  0
  1  2  1  6
 22  1  1  0
  1 23  1  0
  3  4  2  0
 25  3  1  0
  4  5  1  0
  4 32  1  0
  5 26  1  0
 26  6  1  0
  6 27  1  0
 27  7  1  0
  7 28  2  0
  7 31  1  0
 28  8  1  0
  8 29  2  0
 10  9  2  0
 11 10  1  0
 10 25  1  0
 12 11  1  0
 12 13  1  0
 12 14  1  6
 13 30  1  0
 15 14  1  0
 16 15  1  1
 16 17  1  0
 20 16  1  0
 17 18  1  0
 17 19  1  6
 21 20  1  0
 20 24  2  0
 21 22  1  0
 25 42  2  0
 29 30  1  0
 30 31  2  0
 32 33  2  0
 33 34  1  0
 33 42  1  0
 34 35  1  0
 34 38  1  0
 35 36  1  0
 36 37  1  0
 38 39  2  0
 38 40  1  1
 38 41  2  0
M  CHG  1  15   1
M  END
$$$$
