
     RDKit          3D

 42 44  0  0  0  0  0  0  0  0999 V2000
   -1.7194  -20.3934   41.0279 C   0  0  2  0  0  0  0  0  0  0  0  0
   -0.3402  -20.4339   40.5123 C   0  0  0  0  0  0  0  0  0  0  0  0
   -0.4379  -18.1765   31.2487 C   0  0  0  0  0  0  0  0  0  0  0  0
    0.4091  -17.6951   30.2944 C   0  0  0  0  0  0  0  0  0  0  0  0
    0.1191  -16.8595   29.0758 C   0  0  0  0  0  0  0  0  0  0  0  0
    0.1936  -14.5915   30.2232 C   0  0  0  0  0  0  0  0  0  0  0  0
   -1.8686  -14.6187   31.6880 C   0  0  0  0  0  0  0  0  0  0  0  0
   -4.2780  -14.7491   31.2452 C   0  0  0  0  0  0  0  0  0  0  0  0
   -0.2603  -20.5689   33.8470 O   0  0  0  0  0  0  0  0  0  0  0  0
   -0.6380  -19.3143   33.5758 C   0  0  0  0  0  0  0  0  0  0  0  0
   -1.5431  -18.8553   34.5081 N   0  0  0  0  0  0  0  0  0  0  0  0
   -2.7818  -18.1459   34.5572 C   0  0  1  0  0  0  0  0  0  0  0  0
   -3.4185  -17.6610   33.3368 C   0  0  0  0  0  0  0  0  0  0  0  0
   -3.8045  -18.9148   35.4449 C   0  0  0  0  0  0  0  0  0  0  0  0
   -3.6929  -20.3258   35.1836 N   0  0  0  0  0  4  0  0  0  0  0  0
   -2.8576  -20.9593   36.2015 C   0  0  2  0  0  0  0  0  0  0  0  0
   -3.0456  -22.4390   36.2882 C   0  0  1  0  0  0  0  0  0  0  0  0
   -2.3103  -23.0715   37.2623 O   0  0  0  0  0  0  0  0  0  0  0  0
   -4.5215  -22.7734   36.5165 C   0  0  0  0  0  0  0  0  0  0  0  0
   -3.2260  -20.3915   37.5638 C   0  0  0  0  0  0  0  0  0  0  0  0
   -2.4875  -20.7053   38.7191 N   0  0  0  0  0  0  0  0  0  0  0  0
   -2.8476  -20.5705   40.0892 C   0  0  0  0  0  0  0  0  0  0  0  0
   -1.9372  -19.0813   41.8075 C   0  0  0  0  0  0  0  0  0  0  0  0
   -4.2146  -19.6278   37.6204 O   0  0  0  0  0  0  0  0  0  0  0  0
    0.0526  -18.8149   32.3517 C   0  0  0  0  0  0  0  0  0  0  0  0
   -0.5531  -15.5367   29.3087 C   0  0  0  0  0  0  0  0  0  0  0  0
   -0.7072  -13.8284   31.1682 C   0  0  0  0  0  0  0  0  0  0  0  0
   -3.0561  -14.1497   31.0814 C   0  0  0  0  0  0  0  0  0  0  0  0
   -4.2691  -15.8531   32.0464 C   0  0  0  0  0  0  0  0  0  0  0  0
   -3.1007  -16.3659   32.6810 C   0  0  0  0  0  0  0  0  0  0  0  0
   -1.9041  -15.7298   32.4957 C   0  0  0  0  0  0  0  0  0  0  0  0
    1.8023  -17.8725   30.4434 C   0  0  0  0  0  0  0  0  0  0  0  0
    2.3662  -18.5099   31.5177 C   0  0  0  0  0  0  0  0  0  0  0  0
    3.7660  -18.7143   31.6636 N   0  0  0  0  0  0  0  0  0  0  0  0
    4.2477  -19.6328   32.6213 C   0  0  0  0  0  0  0  0  0  0  0  0
    4.7390  -19.1450   33.9221 C   0  0  0  0  0  0  0  0  0  0  0  0
    4.9017  -20.2446   34.9104 C   0  0  0  0  0  0  0  0  0  0  0  0
    4.7624  -17.8245   30.5648 S   0  0  1  0  0  6  0  0  0  0  0  0
    4.3749  -17.9862   29.1485 O   0  0  0  0  0  0  0  0  0  0  0  0
    4.6449  -16.0961   30.9704 C   0  0  0  0  0  0  0  0  0  0  0  0
    6.2227  -18.2109   30.7511 O   0  0  0  0  0  0  0  0  0  0  0  0
    1.4654  -18.9583   32.4362 C   0  0  0  0  0  0  0  0  0  0  0  0
  1  2  1  6
 22  1  1  0
  1 23  1  0
  3  4  2  0
 25  3  1  0
  4  5  1  0
  4 32  1  0
  5 26  1  0
 26  6  1  0
  6 27  1  0
 27  7  1  0
  7 28  2  0
  7 31  1  0
 28  8  1  0
  8 29  2  0
 10  9  2  0
 11 10  1  0
 10 25  1  0
 12 11  1  0
 12 13  1  0
 12 14  1  6
 13 30  1  0
 15 14  1  0
 16 15  1  6
 16 17  1  0
 20 16  1  0
 17 18  1  0
 17 19  1  1
 21 20  1  0
 20 24  2  0
 21 22  1  0
 25 42  2  0
 29 30  1  0
 30 31  2  0
 32 33  2  0
 33 34  1  0
 33 42  1  0
 34 35  1  0
 34 38  1  0
 35 36  1  0
 36 37  1  0
 38 39  2  0
 38 40  1  1
 38 41  2  0
M  CHG  1  15   1
M  END
$$$$
