
     RDKit          3D

 24 27  0  0  0  0  0  0  0  0999 V2000
  -13.3750  -10.6670   25.1597 C   0  0  0  0  0  0  0  0  0  0  0  0
  -14.6830  -11.7366   26.8462 C   0  0  0  0  0  0  0  0  0  0  0  0
  -14.3989  -10.8170   29.1225 C   0  0  0  0  0  0  0  0  0  0  0  0
  -12.4894   -9.5163   23.0706 C   0  0  0  0  0  0  0  0  0  0  0  0
  -12.1778   -9.9949   21.7073 C   0  0  0  0  0  0  0  0  0  0  0  0
  -10.8291   -4.3544   28.9332 N   0  0  0  0  0  0  0  0  0  0  0  0
  -10.5035   -5.7451   29.2718 C   0  0  0  0  0  0  0  0  0  0  0  0
  -10.1338   -7.2412   29.6160 C   0  0  0  0  0  0  0  0  0  0  0  0
  -11.0373   -8.2053   29.3237 C   0  0  0  0  0  0  0  0  0  0  0  0
  -10.7557   -9.4155   29.4908 C   0  0  0  0  0  0  0  0  0  0  0  0
   -9.4985   -9.8623   29.9715 C   0  0  0  0  0  0  0  0  0  0  0  0
   -8.4996   -8.8067   30.2626 C   0  0  0  0  0  0  0  0  0  0  0  0
   -8.9854   -7.5459   30.0433 C   0  0  0  0  0  0  0  0  0  0  0  0
  -12.4593   -7.8027   28.7316 C   0  0  0  0  0  0  0  0  0  0  0  0
  -13.0689   -9.1367   28.5212 N   0  0  0  0  0  0  0  0  0  0  0  0
  -13.3572   -9.7618   27.4206 C   0  0  0  0  0  0  0  0  0  0  0  0
  -12.9352   -9.7693   25.9905 C   0  0  0  0  0  0  0  0  0  0  0  0
  -14.2495  -11.6762   25.4759 C   0  0  0  0  0  0  0  0  0  0  0  0
  -14.2250  -10.8410   27.6546 C   0  0  0  0  0  0  0  0  0  0  0  0
  -13.6765   -9.7745   29.5260 C   0  0  0  0  0  0  0  0  0  0  0  0
  -12.6821  -10.7589   23.8036 C   0  0  0  0  0  0  0  0  0  0  0  0
  -12.1990  -11.3363   21.7336 N   0  0  0  0  0  0  0  0  0  0  0  0
  -12.5205  -11.6368   23.0498 N   0  0  0  0  0  0  0  0  0  0  0  0
  -12.0797   -8.9825   20.6977 N   0  0  0  0  0  0  0  0  0  0  0  0
  1 17  2  0
 18  1  1  0
  1 21  1  0
  2 18  2  0
 19  2  1  0
  3 19  1  0
 20  3  2  0
  4  5  1  0
 21  4  2  0
  5 22  2  0
  5 24  1  0
  7  6  3  0
  8  7  1  0
  9  8  2  0
  8 13  1  0
  9 10  1  0
 14  9  1  0
 10 11  2  0
 11 12  1  0
 13 12  2  0
 15 14  1  0
 15 16  1  0
 15 20  1  0
 16 17  1  0
 16 19  2  0
 21 23  1  0
 22 23  1  0
M  END
$$$$
