
     RDKit          3D

 24 27  0  0  0  0  0  0  0  0999 V2000
  -20.8803  -17.7490   13.0727 C   0  0  0  0  0  0  0  0  0  0  0  0
  -23.1266  -17.4597   13.8273 C   0  0  0  0  0  0  0  0  0  0  0  0
  -24.7631  -19.0334   12.8508 C   0  0  0  0  0  0  0  0  0  0  0  0
  -18.4659  -18.0149   12.3157 C   0  0  0  0  0  0  0  0  0  0  0  0
  -17.2360  -17.2337   12.5646 C   0  0  0  0  0  0  0  0  0  0  0  0
  -21.2579  -24.4447    9.2650 N   0  0  0  0  0  0  0  0  0  0  0  0
  -22.2708  -23.4197    8.9855 C   0  0  0  0  0  0  0  0  0  0  0  0
  -23.3564  -22.3065    8.7104 C   0  0  0  0  0  0  0  0  0  0  0  0
  -23.5811  -21.3824    9.6732 C   0  0  0  0  0  0  0  0  0  0  0  0
  -24.3638  -20.4248    9.4682 C   0  0  0  0  0  0  0  0  0  0  0  0
  -25.0470  -20.2277    8.2412 C   0  0  0  0  0  0  0  0  0  0  0  0
  -24.7766  -21.2238    7.1774 C   0  0  0  0  0  0  0  0  0  0  0  0
  -23.9165  -22.2083    7.5831 C   0  0  0  0  0  0  0  0  0  0  0  0
  -22.8207  -21.4928   11.0676 C   0  0  0  0  0  0  0  0  0  0  0  0
  -23.2681  -20.2483   11.7358 N   0  0  0  0  0  0  0  0  0  0  0  0
  -22.5819  -19.3366   12.3550 C   0  0  0  0  0  0  0  0  0  0  0  0
  -21.1876  -18.8091   12.3861 C   0  0  0  0  0  0  0  0  0  0  0  0
  -21.7589  -17.0138   13.8281 C   0  0  0  0  0  0  0  0  0  0  0  0
  -23.4096  -18.5081   13.1301 C   0  0  0  0  0  0  0  0  0  0  0  0
  -24.5589  -20.0544   12.0218 C   0  0  0  0  0  0  0  0  0  0  0  0
  -19.5064  -17.1336   12.8248 C   0  0  0  0  0  0  0  0  0  0  0  0
  -17.6002  -16.0737   13.1321 N   0  0  0  0  0  0  0  0  0  0  0  0
  -18.9815  -16.1698   13.2255 N   0  0  0  0  0  0  0  0  0  0  0  0
  -16.0016  -17.9121   12.2998 N   0  0  0  0  0  0  0  0  0  0  0  0
  1 17  2  0
 18  1  1  0
  1 21  1  0
  2 18  2  0
 19  2  1  0
  3 19  1  0
 20  3  2  0
  4  5  1  0
 21  4  2  0
  5 22  2  0
  5 24  1  0
  7  6  3  0
  8  7  1  0
  9  8  2  0
  8 13  1  0
  9 10  1  0
 14  9  1  0
 10 11  2  0
 11 12  1  0
 13 12  2  0
 15 14  1  0
 15 16  1  0
 15 20  1  0
 16 17  1  0
 16 19  2  0
 21 23  1  0
 22 23  1  0
M  END
$$$$
