
     RDKit          3D

 24 27  0  0  0  0  0  0  0  0999 V2000
  -20.0152  -18.3053   13.0515 C   0  0  0  0  0  0  0  0  0  0  0  0
  -22.1886  -17.3180   13.0727 C   0  0  0  0  0  0  0  0  0  0  0  0
  -23.8646  -18.4613   11.6613 C   0  0  0  0  0  0  0  0  0  0  0  0
  -18.0146  -16.7732   13.4028 C   0  0  0  0  0  0  0  0  0  0  0  0
  -16.5659  -16.9282   13.1539 C   0  0  0  0  0  0  0  0  0  0  0  0
  -21.7676  -24.4532    8.2256 N   0  0  0  0  0  0  0  0  0  0  0  0
  -22.8883  -23.8516    8.9583 C   0  0  0  0  0  0  0  0  0  0  0  0
  -24.0794  -23.1806    9.7486 C   0  0  0  0  0  0  0  0  0  0  0  0
  -23.8154  -22.0749   10.4828 C   0  0  0  0  0  0  0  0  0  0  0  0
  -24.7417  -21.4514   11.0528 C   0  0  0  0  0  0  0  0  0  0  0  0
  -26.1048  -21.8331   10.9658 C   0  0  0  0  0  0  0  0  0  0  0  0
  -26.3957  -23.0267   10.1366 C   0  0  0  0  0  0  0  0  0  0  0  0
  -25.2653  -23.5911    9.6098 C   0  0  0  0  0  0  0  0  0  0  0  0
  -22.3199  -21.5410   10.5980 C   0  0  0  0  0  0  0  0  0  0  0  0
  -22.5470  -20.1579   11.0784 N   0  0  0  0  0  0  0  0  0  0  0  0
  -21.8296  -19.4163   11.8662 C   0  0  0  0  0  0  0  0  0  0  0  0
  -20.4133  -19.3021   12.3184 C   0  0  0  0  0  0  0  0  0  0  0  0
  -20.8122  -17.2775   13.4890 C   0  0  0  0  0  0  0  0  0  0  0  0
  -22.5581  -18.3117   12.3369 C   0  0  0  0  0  0  0  0  0  0  0  0
  -23.7449  -19.5797   10.9498 C   0  0  0  0  0  0  0  0  0  0  0  0
  -18.5102  -18.1309   13.2308 C   0  0  0  0  0  0  0  0  0  0  0  0
  -16.3360  -18.2235   12.8901 N   0  0  0  0  0  0  0  0  0  0  0  0
  -17.5934  -18.8058   12.9677 N   0  0  0  0  0  0  0  0  0  0  0  0
  -15.8078  -15.7130   13.1042 N   0  0  0  0  0  0  0  0  0  0  0  0
  1 17  2  0
 18  1  1  0
  1 21  1  0
  2 18  2  0
 19  2  1  0
  3 19  1  0
 20  3  2  0
  4  5  1  0
 21  4  2  0
  5 22  2  0
  5 24  1  0
  7  6  3  0
  8  7  1  0
  9  8  2  0
  8 13  1  0
  9 10  1  0
 14  9  1  0
 10 11  2  0
 11 12  1  0
 13 12  2  0
 15 14  1  0
 15 16  1  0
 15 20  1  0
 16 17  1  0
 16 19  2  0
 21 23  1  0
 22 23  1  0
M  END
$$$$
