
     RDKit          3D

 24 27  0  0  0  0  0  0  0  0999 V2000
  -21.2829  -19.1627   10.4169 C   0  0  0  0  0  0  0  0  0  0  0  0
  -23.6638  -19.1448   10.2437 C   0  0  0  0  0  0  0  0  0  0  0  0
  -24.6518  -21.1921    9.2738 C   0  0  0  0  0  0  0  0  0  0  0  0
  -18.7524  -19.1232   10.6778 C   0  0  0  0  0  0  0  0  0  0  0  0
  -17.7932  -18.0724   11.0782 C   0  0  0  0  0  0  0  0  0  0  0  0
  -20.7107  -27.1178    8.3665 N   0  0  0  0  0  0  0  0  0  0  0  0
  -21.3399  -26.3720    9.4632 C   0  0  0  0  0  0  0  0  0  0  0  0
  -22.0415  -25.5803   10.6355 C   0  0  0  0  0  0  0  0  0  0  0  0
  -22.3650  -24.2832   10.4256 C   0  0  0  0  0  0  0  0  0  0  0  0
  -23.0058  -23.6377   11.2884 C   0  0  0  0  0  0  0  0  0  0  0  0
  -23.4451  -24.2009   12.5136 C   0  0  0  0  0  0  0  0  0  0  0  0
  -23.1162  -25.6300   12.7289 C   0  0  0  0  0  0  0  0  0  0  0  0
  -22.3968  -26.1671   11.6955 C   0  0  0  0  0  0  0  0  0  0  0  0
  -21.9574  -23.5784    9.0574 C   0  0  0  0  0  0  0  0  0  0  0  0
  -22.7391  -22.3223    9.1396 N   0  0  0  0  0  0  0  0  0  0  0  0
  -22.4280  -21.1746    9.6603 C   0  0  0  0  0  0  0  0  0  0  0  0
  -21.2059  -20.3941   10.0080 C   0  0  0  0  0  0  0  0  0  0  0  0
  -22.4471  -18.4546   10.5791 C   0  0  0  0  0  0  0  0  0  0  0  0
  -23.5615  -20.3630    9.8302 C   0  0  0  0  0  0  0  0  0  0  0  0
  -24.0537  -22.3208    8.9000 C   0  0  0  0  0  0  0  0  0  0  0  0
  -19.9817  -18.3688   10.4826 C   0  0  0  0  0  0  0  0  0  0  0  0
  -18.4509  -16.9029   11.0821 N   0  0  0  0  0  0  0  0  0  0  0  0
  -19.7433  -17.2484   10.7125 N   0  0  0  0  0  0  0  0  0  0  0  0
  -16.5004  -18.5324   11.4919 N   0  0  0  0  0  0  0  0  0  0  0  0
  1 17  2  0
 18  1  1  0
  1 21  1  0
  2 18  2  0
 19  2  1  0
  3 19  1  0
 20  3  2  0
  4  5  1  0
 21  4  2  0
  5 22  2  0
  5 24  1  0
  7  6  3  0
  8  7  1  0
  9  8  2  0
  8 13  1  0
  9 10  1  0
 14  9  1  0
 10 11  2  0
 11 12  1  0
 13 12  2  0
 15 14  1  0
 15 16  1  0
 15 20  1  0
 16 17  1  0
 16 19  2  0
 21 23  1  0
 22 23  1  0
M  END
$$$$
