
     RDKit          3D

 24 27  0  0  0  0  0  0  0  0999 V2000
  -21.3063  -18.5130   13.2725 C   0  0  0  0  0  0  0  0  0  0  0  0
  -23.3887  -19.3712   14.0637 C   0  0  0  0  0  0  0  0  0  0  0  0
  -24.8910  -20.2415   12.3048 C   0  0  0  0  0  0  0  0  0  0  0  0
  -19.4089  -17.1211   12.3053 C   0  0  0  0  0  0  0  0  0  0  0  0
  -18.1551  -16.5851   12.8757 C   0  0  0  0  0  0  0  0  0  0  0  0
  -21.8791  -21.1569    5.7011 N   0  0  0  0  0  0  0  0  0  0  0  0
  -21.9249  -21.8006    7.0196 C   0  0  0  0  0  0  0  0  0  0  0  0
  -21.9848  -22.5161    8.4260 C   0  0  0  0  0  0  0  0  0  0  0  0
  -22.4942  -21.8253    9.4722 C   0  0  0  0  0  0  0  0  0  0  0  0
  -22.6498  -22.3780   10.5866 C   0  0  0  0  0  0  0  0  0  0  0  0
  -22.3285  -23.7373   10.8322 C   0  0  0  0  0  0  0  0  0  0  0  0
  -21.7989  -24.5007    9.6774 C   0  0  0  0  0  0  0  0  0  0  0  0
  -21.6761  -23.7341    8.5500 C   0  0  0  0  0  0  0  0  0  0  0  0
  -22.9307  -20.3064    9.2792 C   0  0  0  0  0  0  0  0  0  0  0  0
  -23.4479  -19.9844   10.6299 N   0  0  0  0  0  0  0  0  0  0  0  0
  -22.8212  -19.5811   11.6928 C   0  0  0  0  0  0  0  0  0  0  0  0
  -21.5540  -18.8814   12.0509 C   0  0  0  0  0  0  0  0  0  0  0  0
  -22.1393  -18.7156   14.3440 C   0  0  0  0  0  0  0  0  0  0  0  0
  -23.6169  -19.7184   12.8419 C   0  0  0  0  0  0  0  0  0  0  0  0
  -24.6767  -20.3601   10.9966 C   0  0  0  0  0  0  0  0  0  0  0  0
  -20.1257  -17.5713   13.4894 C   0  0  0  0  0  0  0  0  0  0  0  0
  -18.2192  -16.7340   14.2077 N   0  0  0  0  0  0  0  0  0  0  0  0
  -19.4498  -17.3415   14.4143 N   0  0  0  0  0  0  0  0  0  0  0  0
  -17.1556  -16.1923   11.9266 N   0  0  0  0  0  0  0  0  0  0  0  0
  1 17  2  0
 18  1  1  0
  1 21  1  0
  2 18  2  0
 19  2  1  0
  3 19  1  0
 20  3  2  0
  4  5  1  0
 21  4  2  0
  5 22  2  0
  5 24  1  0
  7  6  3  0
  8  7  1  0
  9  8  2  0
  8 13  1  0
  9 10  1  0
 14  9  1  0
 10 11  2  0
 11 12  1  0
 13 12  2  0
 15 14  1  0
 15 16  1  0
 15 20  1  0
 16 17  1  0
 16 19  2  0
 21 23  1  0
 22 23  1  0
M  END
$$$$
