
     RDKit          3D

 24 27  0  0  0  0  0  0  0  0999 V2000
  -21.2997  -18.9445   13.0214 C   0  0  0  0  0  0  0  0  0  0  0  0
  -22.6478  -20.7023   13.9110 C   0  0  0  0  0  0  0  0  0  0  0  0
  -24.7901  -21.0680   12.7342 C   0  0  0  0  0  0  0  0  0  0  0  0
  -19.9833  -16.9330   12.1884 C   0  0  0  0  0  0  0  0  0  0  0  0
  -18.6760  -16.3540   12.5632 C   0  0  0  0  0  0  0  0  0  0  0  0
  -24.9484  -17.4002    6.3094 N   0  0  0  0  0  0  0  0  0  0  0  0
  -24.3671  -18.6061    6.9117 C   0  0  0  0  0  0  0  0  0  0  0  0
  -23.7339  -19.9119    7.5341 C   0  0  0  0  0  0  0  0  0  0  0  0
  -23.8974  -20.1311    8.8595 C   0  0  0  0  0  0  0  0  0  0  0  0
  -23.4955  -21.1963    9.3843 C   0  0  0  0  0  0  0  0  0  0  0  0
  -22.8683  -22.2360    8.6516 C   0  0  0  0  0  0  0  0  0  0  0  0
  -22.7172  -22.0073    7.1950 C   0  0  0  0  0  0  0  0  0  0  0  0
  -23.1915  -20.7851    6.8011 C   0  0  0  0  0  0  0  0  0  0  0  0
  -24.6354  -19.0417    9.7557 C   0  0  0  0  0  0  0  0  0  0  0  0
  -24.4109  -19.5899   11.1138 N   0  0  0  0  0  0  0  0  0  0  0  0
  -23.3522  -19.5610   11.8644 C   0  0  0  0  0  0  0  0  0  0  0  0
  -22.1146  -18.7456   12.0285 C   0  0  0  0  0  0  0  0  0  0  0  0
  -21.4628  -19.8918   14.0007 C   0  0  0  0  0  0  0  0  0  0  0  0
  -23.4470  -20.4796   12.9226 C   0  0  0  0  0  0  0  0  0  0  0  0
  -25.2637  -20.4728   11.6420 C   0  0  0  0  0  0  0  0  0  0  0  0
  -20.2201  -17.8925   13.2569 C   0  0  0  0  0  0  0  0  0  0  0  0
  -18.2835  -16.9428   13.7033 N   0  0  0  0  0  0  0  0  0  0  0  0
  -19.3066  -17.8378   13.9833 N   0  0  0  0  0  0  0  0  0  0  0  0
  -18.0906  -15.4627   11.6057 N   0  0  0  0  0  0  0  0  0  0  0  0
  1 17  2  0
 18  1  1  0
  1 21  1  0
  2 18  2  0
 19  2  1  0
  3 19  1  0
 20  3  2  0
  4  5  1  0
 21  4  2  0
  5 22  2  0
  5 24  1  0
  7  6  3  0
  8  7  1  0
  9  8  2  0
  8 13  1  0
  9 10  1  0
 14  9  1  0
 10 11  2  0
 11 12  1  0
 13 12  2  0
 15 14  1  0
 15 16  1  0
 15 20  1  0
 16 17  1  0
 16 19  2  0
 21 23  1  0
 22 23  1  0
M  END
$$$$
