
     RDKit          3D

 24 27  0  0  0  0  0  0  0  0999 V2000
  -20.9050  -17.9372   13.3011 C   0  0  0  0  0  0  0  0  0  0  0  0
  -22.8263  -18.5302   14.5881 C   0  0  0  0  0  0  0  0  0  0  0  0
  -24.7875  -19.2410   13.2628 C   0  0  0  0  0  0  0  0  0  0  0  0
  -18.6207  -17.5981   12.2335 C   0  0  0  0  0  0  0  0  0  0  0  0
  -17.3995  -16.8846   12.6629 C   0  0  0  0  0  0  0  0  0  0  0  0
  -22.9408  -20.4527    6.2274 N   0  0  0  0  0  0  0  0  0  0  0  0
  -22.9107  -21.1261    7.5314 C   0  0  0  0  0  0  0  0  0  0  0  0
  -22.9061  -21.8475    8.9360 C   0  0  0  0  0  0  0  0  0  0  0  0
  -23.2746  -21.1305   10.0229 C   0  0  0  0  0  0  0  0  0  0  0  0
  -23.3774  -21.6801   11.1450 C   0  0  0  0  0  0  0  0  0  0  0  0
  -23.1378  -23.0613   11.3594 C   0  0  0  0  0  0  0  0  0  0  0  0
  -22.7637  -23.8513   10.1623 C   0  0  0  0  0  0  0  0  0  0  0  0
  -22.6787  -23.0859    9.0307 C   0  0  0  0  0  0  0  0  0  0  0  0
  -23.6125  -19.5821    9.8710 C   0  0  0  0  0  0  0  0  0  0  0  0
  -23.7586  -19.1814   11.2900 N   0  0  0  0  0  0  0  0  0  0  0  0
  -22.8586  -18.8403   12.1611 C   0  0  0  0  0  0  0  0  0  0  0  0
  -21.4725  -18.2911   12.1865 C   0  0  0  0  0  0  0  0  0  0  0  0
  -21.4805  -18.0239   14.5438 C   0  0  0  0  0  0  0  0  0  0  0  0
  -23.3724  -18.8653   13.4679 C   0  0  0  0  0  0  0  0  0  0  0  0
  -24.9011  -19.4030   11.9466 C   0  0  0  0  0  0  0  0  0  0  0  0
  -19.6086  -17.1395   13.1991 C   0  0  0  0  0  0  0  0  0  0  0  0
  -17.7214  -16.1340   13.7274 N   0  0  0  0  0  0  0  0  0  0  0  0
  -19.0688  -16.4009   13.9259 N   0  0  0  0  0  0  0  0  0  0  0  0
  -16.1920  -17.2492   11.9825 N   0  0  0  0  0  0  0  0  0  0  0  0
  1 17  2  0
 18  1  1  0
  1 21  1  0
  2 18  2  0
 19  2  1  0
  3 19  1  0
 20  3  2  0
  4  5  1  0
 21  4  2  0
  5 22  2  0
  5 24  1  0
  7  6  3  0
  8  7  1  0
  9  8  2  0
  8 13  1  0
  9 10  1  0
 14  9  1  0
 10 11  2  0
 11 12  1  0
 13 12  2  0
 15 14  1  0
 15 16  1  0
 15 20  1  0
 16 17  1  0
 16 19  2  0
 21 23  1  0
 22 23  1  0
M  END
$$$$
