
     RDKit          3D

 24 27  0  0  0  0  0  0  0  0999 V2000
  -19.9795  -17.2097   13.2344 C   0  0  0  0  0  0  0  0  0  0  0  0
  -22.1894  -16.4483   13.7198 C   0  0  0  0  0  0  0  0  0  0  0  0
  -24.0001  -17.9046   12.8778 C   0  0  0  0  0  0  0  0  0  0  0  0
  -17.6333  -17.9464   12.5821 C   0  0  0  0  0  0  0  0  0  0  0  0
  -16.2891  -17.3902   12.8441 C   0  0  0  0  0  0  0  0  0  0  0  0
  -20.4217  -21.0415    8.4650 N   0  0  0  0  0  0  0  0  0  0  0  0
  -21.8123  -21.2060    8.9053 C   0  0  0  0  0  0  0  0  0  0  0  0
  -23.3089  -21.3561    9.3862 C   0  0  0  0  0  0  0  0  0  0  0  0
  -23.5777  -21.1787   10.7006 C   0  0  0  0  0  0  0  0  0  0  0  0
  -24.7597  -21.1948   11.1179 C   0  0  0  0  0  0  0  0  0  0  0  0
  -25.8814  -21.3797   10.2701 C   0  0  0  0  0  0  0  0  0  0  0  0
  -25.5873  -21.5437    8.8267 C   0  0  0  0  0  0  0  0  0  0  0  0
  -24.2456  -21.5213    8.5560 C   0  0  0  0  0  0  0  0  0  0  0  0
  -22.3857  -20.9146   11.7225 C   0  0  0  0  0  0  0  0  0  0  0  0
  -22.6609  -19.5158   12.1265 N   0  0  0  0  0  0  0  0  0  0  0  0
  -21.8730  -18.6225   12.6427 C   0  0  0  0  0  0  0  0  0  0  0  0
  -20.4151  -18.3174   12.7119 C   0  0  0  0  0  0  0  0  0  0  0  0
  -20.7694  -16.2240   13.7706 C   0  0  0  0  0  0  0  0  0  0  0  0
  -22.5985  -17.5503   13.1872 C   0  0  0  0  0  0  0  0  0  0  0  0
  -23.9169  -19.0784   12.2559 C   0  0  0  0  0  0  0  0  0  0  0  0
  -18.5095  -16.8669   13.0131 C   0  0  0  0  0  0  0  0  0  0  0  0
  -16.4514  -16.1570   13.3473 N   0  0  0  0  0  0  0  0  0  0  0  0
  -17.8291  -15.9960   13.3920 N   0  0  0  0  0  0  0  0  0  0  0  0
  -15.1925  -18.2936   12.6558 N   0  0  0  0  0  0  0  0  0  0  0  0
  1 17  2  0
 18  1  1  0
  1 21  1  0
  2 18  2  0
 19  2  1  0
  3 19  1  0
 20  3  2  0
  4  5  1  0
 21  4  2  0
  5 22  2  0
  5 24  1  0
  7  6  3  0
  8  7  1  0
  9  8  2  0
  8 13  1  0
  9 10  1  0
 14  9  1  0
 10 11  2  0
 11 12  1  0
 13 12  2  0
 15 14  1  0
 15 16  1  0
 15 20  1  0
 16 17  1  0
 16 19  2  0
 21 23  1  0
 22 23  1  0
M  END
$$$$
