
     RDKit          3D

 24 27  0  0  0  0  0  0  0  0999 V2000
  -11.8850   -9.3041   26.6332 C   0  0  0  0  0  0  0  0  0  0  0  0
  -13.8662   -9.4113   27.9609 C   0  0  0  0  0  0  0  0  0  0  0  0
  -15.7351  -10.6667   26.9416 C   0  0  0  0  0  0  0  0  0  0  0  0
   -9.8129   -9.0862   25.1732 C   0  0  0  0  0  0  0  0  0  0  0  0
   -8.5109   -8.4117   25.3593 C   0  0  0  0  0  0  0  0  0  0  0  0
  -13.6814  -14.7054   21.1534 N   0  0  0  0  0  0  0  0  0  0  0  0
  -14.1922  -13.3422   21.3425 C   0  0  0  0  0  0  0  0  0  0  0  0
  -14.7672  -11.8848   21.5390 C   0  0  0  0  0  0  0  0  0  0  0  0
  -14.8066  -11.3779   22.7931 C   0  0  0  0  0  0  0  0  0  0  0  0
  -15.1664  -10.1935   22.9916 C   0  0  0  0  0  0  0  0  0  0  0  0
  -15.5367   -9.3078   21.9477 C   0  0  0  0  0  0  0  0  0  0  0  0
  -15.4640   -9.8552   20.5722 C   0  0  0  0  0  0  0  0  0  0  0  0
  -15.0736  -11.1669   20.5465 C   0  0  0  0  0  0  0  0  0  0  0  0
  -14.3613  -12.2823   24.0254 C   0  0  0  0  0  0  0  0  0  0  0  0
  -14.5958  -11.3564   25.1582 N   0  0  0  0  0  0  0  0  0  0  0  0
  -13.7535  -10.6620   25.8608 C   0  0  0  0  0  0  0  0  0  0  0  0
  -12.3811  -10.0941   25.7280 C   0  0  0  0  0  0  0  0  0  0  0  0
  -12.5293   -8.9120   27.7796 C   0  0  0  0  0  0  0  0  0  0  0  0
  -14.3410  -10.1854   27.0440 C   0  0  0  0  0  0  0  0  0  0  0  0
  -15.7700  -11.3432   25.7959 C   0  0  0  0  0  0  0  0  0  0  0  0
  -10.5992   -8.5627   26.2806 C   0  0  0  0  0  0  0  0  0  0  0  0
   -8.6143   -7.6209   26.4383 N   0  0  0  0  0  0  0  0  0  0  0  0
   -9.9145   -7.8277   26.8773 N   0  0  0  0  0  0  0  0  0  0  0  0
   -7.4551   -8.8428   24.4912 N   0  0  0  0  0  0  0  0  0  0  0  0
  1 17  2  0
 18  1  1  0
  1 21  1  0
  2 18  2  0
 19  2  1  0
  3 19  1  0
 20  3  2  0
  4  5  1  0
 21  4  2  0
  5 22  2  0
  5 24  1  0
  7  6  3  0
  8  7  1  0
  9  8  2  0
  8 13  1  0
  9 10  1  0
 14  9  1  0
 10 11  2  0
 11 12  1  0
 13 12  2  0
 15 14  1  0
 15 16  1  0
 15 20  1  0
 16 17  1  0
 16 19  2  0
 21 23  1  0
 22 23  1  0
M  END
$$$$
