
     RDKit          3D

 24 27  0  0  0  0  0  0  0  0999 V2000
  -20.1713  -17.9810   13.3832 C   0  0  0  0  0  0  0  0  0  0  0  0
  -21.8269  -18.2013   15.0890 C   0  0  0  0  0  0  0  0  0  0  0  0
  -23.8637  -19.4255   14.4102 C   0  0  0  0  0  0  0  0  0  0  0  0
  -18.1784  -17.8612   11.8062 C   0  0  0  0  0  0  0  0  0  0  0  0
  -16.9612  -17.0232   11.7764 C   0  0  0  0  0  0  0  0  0  0  0  0
  -22.7683  -22.7734    7.9155 N   0  0  0  0  0  0  0  0  0  0  0  0
  -23.6446  -21.7387    8.4779 C   0  0  0  0  0  0  0  0  0  0  0  0
  -24.5664  -20.6072    9.0809 C   0  0  0  0  0  0  0  0  0  0  0  0
  -24.2958  -20.1617   10.3297 C   0  0  0  0  0  0  0  0  0  0  0  0
  -24.9379  -19.2020   10.8178 C   0  0  0  0  0  0  0  0  0  0  0  0
  -25.9608  -18.5139   10.1168 C   0  0  0  0  0  0  0  0  0  0  0  0
  -26.2354  -18.9836    8.7381 C   0  0  0  0  0  0  0  0  0  0  0  0
  -25.4568  -20.0509    8.3796 C   0  0  0  0  0  0  0  0  0  0  0  0
  -23.1300  -20.8401   11.1756 C   0  0  0  0  0  0  0  0  0  0  0  0
  -23.1238  -19.9877   12.3876 N   0  0  0  0  0  0  0  0  0  0  0  0
  -22.1551  -19.3221   12.9388 C   0  0  0  0  0  0  0  0  0  0  0  0
  -20.8441  -18.7239   12.5555 C   0  0  0  0  0  0  0  0  0  0  0  0
  -20.5606  -17.6692   14.6616 C   0  0  0  0  0  0  0  0  0  0  0  0
  -22.4814  -18.9272   14.2464 C   0  0  0  0  0  0  0  0  0  0  0  0
  -24.1370  -20.0328   13.2578 C   0  0  0  0  0  0  0  0  0  0  0  0
  -18.9921  -17.1978   12.8144 C   0  0  0  0  0  0  0  0  0  0  0  0
  -17.1294  -16.0318   12.6647 N   0  0  0  0  0  0  0  0  0  0  0  0
  -18.3840  -16.2793   13.2039 N   0  0  0  0  0  0  0  0  0  0  0  0
  -15.8847  -17.5149   10.9680 N   0  0  0  0  0  0  0  0  0  0  0  0
  1 17  2  0
 18  1  1  0
  1 21  1  0
  2 18  2  0
 19  2  1  0
  3 19  1  0
 20  3  2  0
  4  5  1  0
 21  4  2  0
  5 22  2  0
  5 24  1  0
  7  6  3  0
  8  7  1  0
  9  8  2  0
  8 13  1  0
  9 10  1  0
 14  9  1  0
 10 11  2  0
 11 12  1  0
 13 12  2  0
 15 14  1  0
 15 16  1  0
 15 20  1  0
 16 17  1  0
 16 19  2  0
 21 23  1  0
 22 23  1  0
M  END
$$$$
