
     RDKit          3D

 24 27  0  0  0  0  0  0  0  0999 V2000
  -20.8666  -17.4571   12.7558 C   0  0  0  0  0  0  0  0  0  0  0  0
  -23.2336  -17.1913   12.9162 C   0  0  0  0  0  0  0  0  0  0  0  0
  -24.5488  -18.6578   11.4237 C   0  0  0  0  0  0  0  0  0  0  0  0
  -18.3527  -17.7659   12.9963 C   0  0  0  0  0  0  0  0  0  0  0  0
  -17.2759  -16.9107   13.5386 C   0  0  0  0  0  0  0  0  0  0  0  0
  -22.0534  -22.6716    6.6100 N   0  0  0  0  0  0  0  0  0  0  0  0
  -22.8067  -22.8200    7.8612 C   0  0  0  0  0  0  0  0  0  0  0  0
  -23.6219  -22.9522    9.2070 C   0  0  0  0  0  0  0  0  0  0  0  0
  -23.3594  -22.0725   10.2012 C   0  0  0  0  0  0  0  0  0  0  0  0
  -24.0421  -22.0756   11.2527 C   0  0  0  0  0  0  0  0  0  0  0  0
  -25.1240  -22.9651   11.4749 C   0  0  0  0  0  0  0  0  0  0  0  0
  -25.4296  -23.9078   10.3727 C   0  0  0  0  0  0  0  0  0  0  0  0
  -24.5713  -23.7776    9.3143 C   0  0  0  0  0  0  0  0  0  0  0  0
  -22.1946  -21.0019   10.0222 C   0  0  0  0  0  0  0  0  0  0  0  0
  -22.8078  -19.8062   10.6465 N   0  0  0  0  0  0  0  0  0  0  0  0
  -22.3126  -18.9566   11.4939 C   0  0  0  0  0  0  0  0  0  0  0  0
  -20.9779  -18.4555   11.9309 C   0  0  0  0  0  0  0  0  0  0  0  0
  -21.9162  -16.7690   13.3105 C   0  0  0  0  0  0  0  0  0  0  0  0
  -23.3187  -18.1777   12.0885 C   0  0  0  0  0  0  0  0  0  0  0  0
  -24.1294  -19.6144   10.5988 C   0  0  0  0  0  0  0  0  0  0  0  0
  -19.4789  -16.8465   12.9259 C   0  0  0  0  0  0  0  0  0  0  0  0
  -17.7860  -15.6832   13.7212 N   0  0  0  0  0  0  0  0  0  0  0  0
  -19.1075  -15.8099   13.3165 N   0  0  0  0  0  0  0  0  0  0  0  0
  -16.0528  -17.5811   13.8678 N   0  0  0  0  0  0  0  0  0  0  0  0
  1 17  2  0
 18  1  1  0
  1 21  1  0
  2 18  2  0
 19  2  1  0
  3 19  1  0
 20  3  2  0
  4  5  1  0
 21  4  2  0
  5 22  2  0
  5 24  1  0
  7  6  3  0
  8  7  1  0
  9  8  2  0
  8 13  1  0
  9 10  1  0
 14  9  1  0
 10 11  2  0
 11 12  1  0
 13 12  2  0
 15 14  1  0
 15 16  1  0
 15 20  1  0
 16 17  1  0
 16 19  2  0
 21 23  1  0
 22 23  1  0
M  END
$$$$
