
     RDKit          3D

 24 27  0  0  0  0  0  0  0  0999 V2000
  -21.7785  -18.0164   12.5777 C   0  0  0  0  0  0  0  0  0  0  0  0
  -24.1161  -17.5338   12.5364 C   0  0  0  0  0  0  0  0  0  0  0  0
  -25.5377  -19.3488   11.6458 C   0  0  0  0  0  0  0  0  0  0  0  0
  -19.2808  -18.4632   12.7642 C   0  0  0  0  0  0  0  0  0  0  0  0
  -18.1202  -17.6035   13.0782 C   0  0  0  0  0  0  0  0  0  0  0  0
  -19.9123  -23.6543   11.9177 N   0  0  0  0  0  0  0  0  0  0  0  0
  -20.7104  -23.1935   10.7752 C   0  0  0  0  0  0  0  0  0  0  0  0
  -21.5907  -22.7122    9.5558 C   0  0  0  0  0  0  0  0  0  0  0  0
  -22.8235  -22.2175    9.8146 C   0  0  0  0  0  0  0  0  0  0  0  0
  -23.5244  -21.7367    8.8931 C   0  0  0  0  0  0  0  0  0  0  0  0
  -23.0905  -21.6597    7.5451 C   0  0  0  0  0  0  0  0  0  0  0  0
  -21.7282  -22.1744    7.2686 C   0  0  0  0  0  0  0  0  0  0  0  0
  -21.1187  -22.6798    8.3852 C   0  0  0  0  0  0  0  0  0  0  0  0
  -23.3770  -22.2155   11.3074 C   0  0  0  0  0  0  0  0  0  0  0  0
  -23.8928  -20.8309   11.4186 N   0  0  0  0  0  0  0  0  0  0  0  0
  -23.3349  -19.7660   11.9083 C   0  0  0  0  0  0  0  0  0  0  0  0
  -21.9664  -19.2392   12.1790 C   0  0  0  0  0  0  0  0  0  0  0  0
  -22.7712  -17.0945   12.7961 C   0  0  0  0  0  0  0  0  0  0  0  0
  -24.2769  -18.7485   12.1316 C   0  0  0  0  0  0  0  0  0  0  0  0
  -25.1932  -20.5727   11.2522 C   0  0  0  0  0  0  0  0  0  0  0  0
  -20.3459  -17.4919   12.5622 C   0  0  0  0  0  0  0  0  0  0  0  0
  -18.5365  -16.3286   13.0358 N   0  0  0  0  0  0  0  0  0  0  0  0
  -19.8847  -16.4305   12.7227 N   0  0  0  0  0  0  0  0  0  0  0  0
  -16.9270  -18.2882   13.4801 N   0  0  0  0  0  0  0  0  0  0  0  0
  1 17  2  0
 18  1  1  0
  1 21  1  0
  2 18  2  0
 19  2  1  0
  3 19  1  0
 20  3  2  0
  4  5  1  0
 21  4  2  0
  5 22  2  0
  5 24  1  0
  7  6  3  0
  8  7  1  0
  9  8  2  0
  8 13  1  0
  9 10  1  0
 14  9  1  0
 10 11  2  0
 11 12  1  0
 13 12  2  0
 15 14  1  0
 15 16  1  0
 15 20  1  0
 16 17  1  0
 16 19  2  0
 21 23  1  0
 22 23  1  0
M  END
$$$$
