
     RDKit          3D

 24 27  0  0  0  0  0  0  0  0999 V2000
  -13.0739  -10.7642   25.8505 C   0  0  0  0  0  0  0  0  0  0  0  0
  -12.8007  -11.9532   27.9025 C   0  0  0  0  0  0  0  0  0  0  0  0
  -12.8278  -10.5443   29.9329 C   0  0  0  0  0  0  0  0  0  0  0  0
  -13.0718   -9.4276   23.6857 C   0  0  0  0  0  0  0  0  0  0  0  0
  -13.1275   -9.8120   22.2596 C   0  0  0  0  0  0  0  0  0  0  0  0
  -15.3252   -3.7638   28.6871 N   0  0  0  0  0  0  0  0  0  0  0  0
  -13.9948   -4.3834   28.6575 C   0  0  0  0  0  0  0  0  0  0  0  0
  -12.5731   -5.0687   28.6071 C   0  0  0  0  0  0  0  0  0  0  0  0
  -12.5140   -6.4199   28.6528 C   0  0  0  0  0  0  0  0  0  0  0  0
  -11.4185   -7.0154   28.5225 C   0  0  0  0  0  0  0  0  0  0  0  0
  -10.1885   -6.3430   28.3075 C   0  0  0  0  0  0  0  0  0  0  0  0
  -10.2593   -4.8646   28.2276 C   0  0  0  0  0  0  0  0  0  0  0  0
  -11.5285   -4.3866   28.4130 C   0  0  0  0  0  0  0  0  0  0  0  0
  -13.8509   -7.2637   28.8411 C   0  0  0  0  0  0  0  0  0  0  0  0
  -13.3139   -8.6441   28.8808 N   0  0  0  0  0  0  0  0  0  0  0  0
  -13.2669   -9.5517   27.9538 C   0  0  0  0  0  0  0  0  0  0  0  0
  -13.2765   -9.6370   26.4651 C   0  0  0  0  0  0  0  0  0  0  0  0
  -12.8404  -11.9689   26.4646 C   0  0  0  0  0  0  0  0  0  0  0  0
  -12.9944  -10.8207   28.4901 C   0  0  0  0  0  0  0  0  0  0  0  0
  -13.0390   -9.2352   30.0472 C   0  0  0  0  0  0  0  0  0  0  0  0
  -12.8305  -10.7023   24.3457 C   0  0  0  0  0  0  0  0  0  0  0  0
  -12.9292  -11.1372   22.1886 N   0  0  0  0  0  0  0  0  0  0  0  0
  -12.7752  -11.5206   23.5136 N   0  0  0  0  0  0  0  0  0  0  0  0
  -13.5073   -8.7736   21.3477 N   0  0  0  0  0  0  0  0  0  0  0  0
  1 17  2  0
 18  1  1  0
  1 21  1  0
  2 18  2  0
 19  2  1  0
  3 19  1  0
 20  3  2  0
  4  5  1  0
 21  4  2  0
  5 22  2  0
  5 24  1  0
  7  6  3  0
  8  7  1  0
  9  8  2  0
  8 13  1  0
  9 10  1  0
 14  9  1  0
 10 11  2  0
 11 12  1  0
 13 12  2  0
 15 14  1  0
 15 16  1  0
 15 20  1  0
 16 17  1  0
 16 19  2  0
 21 23  1  0
 22 23  1  0
M  END
$$$$
