
     RDKit          3D

 24 27  0  0  0  0  0  0  0  0999 V2000
  -19.6727  -17.9587   13.4245 C   0  0  0  0  0  0  0  0  0  0  0  0
  -21.4499  -18.5575   14.9017 C   0  0  0  0  0  0  0  0  0  0  0  0
  -23.5137  -19.3339   13.7856 C   0  0  0  0  0  0  0  0  0  0  0  0
  -17.6646  -17.4122   11.9609 C   0  0  0  0  0  0  0  0  0  0  0  0
  -16.3614  -16.7694   12.2310 C   0  0  0  0  0  0  0  0  0  0  0  0
  -20.9352  -22.6724    8.6342 N   0  0  0  0  0  0  0  0  0  0  0  0
  -22.2602  -22.3641    9.1856 C   0  0  0  0  0  0  0  0  0  0  0  0
  -23.6736  -22.0156    9.7974 C   0  0  0  0  0  0  0  0  0  0  0  0
  -23.8685  -20.7677   10.2835 C   0  0  0  0  0  0  0  0  0  0  0  0
  -24.9984  -20.4122   10.6941 C   0  0  0  0  0  0  0  0  0  0  0  0
  -26.1363  -21.2583   10.6700 C   0  0  0  0  0  0  0  0  0  0  0  0
  -25.9283  -22.6145   10.1094 C   0  0  0  0  0  0  0  0  0  0  0  0
  -24.6313  -22.8357    9.7315 C   0  0  0  0  0  0  0  0  0  0  0  0
  -22.6611  -19.7302   10.3046 C   0  0  0  0  0  0  0  0  0  0  0  0
  -22.6792  -19.3002   11.7225 N   0  0  0  0  0  0  0  0  0  0  0  0
  -21.7073  -18.9230   12.4960 C   0  0  0  0  0  0  0  0  0  0  0  0
  -20.3366  -18.3482   12.3770 C   0  0  0  0  0  0  0  0  0  0  0  0
  -20.1251  -18.0278   14.7181 C   0  0  0  0  0  0  0  0  0  0  0  0
  -22.0935  -18.9279   13.8463 C   0  0  0  0  0  0  0  0  0  0  0  0
  -23.7491  -19.5278   12.4901 C   0  0  0  0  0  0  0  0  0  0  0  0
  -18.4084  -17.1400   13.1821 C   0  0  0  0  0  0  0  0  0  0  0  0
  -16.4261  -16.2187   13.4529 N   0  0  0  0  0  0  0  0  0  0  0  0
  -17.7054  -16.5322   13.8902 N   0  0  0  0  0  0  0  0  0  0  0  0
  -15.3391  -16.9959   11.2524 N   0  0  0  0  0  0  0  0  0  0  0  0
  1 17  2  0
 18  1  1  0
  1 21  1  0
  2 18  2  0
 19  2  1  0
  3 19  1  0
 20  3  2  0
  4  5  1  0
 21  4  2  0
  5 22  2  0
  5 24  1  0
  7  6  3  0
  8  7  1  0
  9  8  2  0
  8 13  1  0
  9 10  1  0
 14  9  1  0
 10 11  2  0
 11 12  1  0
 13 12  2  0
 15 14  1  0
 15 16  1  0
 15 20  1  0
 16 17  1  0
 16 19  2  0
 21 23  1  0
 22 23  1  0
M  END
$$$$
