
     RDKit          3D

 24 27  0  0  0  0  0  0  0  0999 V2000
  -12.1612   -6.0850   28.9615 C   0  0  0  0  0  0  0  0  0  0  0  0
  -13.5215   -7.0246   30.6837 C   0  0  0  0  0  0  0  0  0  0  0  0
  -14.0244   -9.4296   30.4166 C   0  0  0  0  0  0  0  0  0  0  0  0
  -10.7129   -5.0303   27.1551 C   0  0  0  0  0  0  0  0  0  0  0  0
  -10.2791   -3.6427   26.8886 C   0  0  0  0  0  0  0  0  0  0  0  0
   -9.5514  -12.2372   25.2271 N   0  0  0  0  0  0  0  0  0  0  0  0
  -10.9226  -11.7140   25.2561 C   0  0  0  0  0  0  0  0  0  0  0  0
  -12.3908  -11.1330   25.2674 C   0  0  0  0  0  0  0  0  0  0  0  0
  -12.8441  -10.5661   26.4095 C   0  0  0  0  0  0  0  0  0  0  0  0
  -13.9661  -10.0078   26.4431 C   0  0  0  0  0  0  0  0  0  0  0  0
  -14.8219   -9.9135   25.3162 C   0  0  0  0  0  0  0  0  0  0  0  0
  -14.3111  -10.5084   24.0584 C   0  0  0  0  0  0  0  0  0  0  0  0
  -13.0823  -11.0918   24.2118 C   0  0  0  0  0  0  0  0  0  0  0  0
  -11.9319  -10.5787   27.7143 C   0  0  0  0  0  0  0  0  0  0  0  0
  -12.7319   -9.7318   28.6299 N   0  0  0  0  0  0  0  0  0  0  0  0
  -12.5922   -8.4820   28.9517 C   0  0  0  0  0  0  0  0  0  0  0  0
  -11.9846   -7.2403   28.3927 C   0  0  0  0  0  0  0  0  0  0  0  0
  -12.8928   -5.8688   30.1021 C   0  0  0  0  0  0  0  0  0  0  0  0
  -13.3404   -8.1588   30.0955 C   0  0  0  0  0  0  0  0  0  0  0  0
  -13.5916  -10.2832   29.4917 C   0  0  0  0  0  0  0  0  0  0  0  0
  -11.7368   -4.8494   28.1737 C   0  0  0  0  0  0  0  0  0  0  0  0
  -11.0034   -2.8329   27.6759 N   0  0  0  0  0  0  0  0  0  0  0  0
  -11.8200   -3.7032   28.3844 N   0  0  0  0  0  0  0  0  0  0  0  0
   -9.1505   -3.4983   26.0171 N   0  0  0  0  0  0  0  0  0  0  0  0
  1 17  2  0
 18  1  1  0
  1 21  1  0
  2 18  2  0
 19  2  1  0
  3 19  1  0
 20  3  2  0
  4  5  1  0
 21  4  2  0
  5 22  2  0
  5 24  1  0
  7  6  3  0
  8  7  1  0
  9  8  2  0
  8 13  1  0
  9 10  1  0
 14  9  1  0
 10 11  2  0
 11 12  1  0
 13 12  2  0
 15 14  1  0
 15 16  1  0
 15 20  1  0
 16 17  1  0
 16 19  2  0
 21 23  1  0
 22 23  1  0
M  END
$$$$
