
     RDKit          3D

 24 27  0  0  0  0  0  0  0  0999 V2000
  -20.9386  -18.9131   12.8551 C   0  0  0  0  0  0  0  0  0  0  0  0
  -23.1933  -18.4102   13.4571 C   0  0  0  0  0  0  0  0  0  0  0  0
  -24.8815  -18.9962   11.7499 C   0  0  0  0  0  0  0  0  0  0  0  0
  -19.0875  -17.2376   13.3441 C   0  0  0  0  0  0  0  0  0  0  0  0
  -17.6390  -17.2165   13.0508 C   0  0  0  0  0  0  0  0  0  0  0  0
  -22.3527  -23.2282    6.3419 N   0  0  0  0  0  0  0  0  0  0  0  0
  -22.7613  -23.3562    7.7460 C   0  0  0  0  0  0  0  0  0  0  0  0
  -23.1937  -23.4673    9.2607 C   0  0  0  0  0  0  0  0  0  0  0  0
  -23.4040  -22.3219    9.9499 C   0  0  0  0  0  0  0  0  0  0  0  0
  -23.8378  -22.3553   11.1257 C   0  0  0  0  0  0  0  0  0  0  0  0
  -24.1493  -23.5601   11.8058 C   0  0  0  0  0  0  0  0  0  0  0  0
  -23.9470  -24.8123   11.0391 C   0  0  0  0  0  0  0  0  0  0  0  0
  -23.4494  -24.5876    9.7838 C   0  0  0  0  0  0  0  0  0  0  0  0
  -23.1296  -20.9176    9.2519 C   0  0  0  0  0  0  0  0  0  0  0  0
  -23.4558  -19.9825   10.3540 N   0  0  0  0  0  0  0  0  0  0  0  0
  -22.7405  -19.6001   11.3676 C   0  0  0  0  0  0  0  0  0  0  0  0
  -21.3033  -19.4922   11.7500 C   0  0  0  0  0  0  0  0  0  0  0  0
  -21.7913  -18.3554   13.7743 C   0  0  0  0  0  0  0  0  0  0  0  0
  -23.5304  -18.9808   12.3499 C   0  0  0  0  0  0  0  0  0  0  0  0
  -24.7189  -19.6094   10.5799 C   0  0  0  0  0  0  0  0  0  0  0  0
  -19.4530  -18.6097   13.0243 C   0  0  0  0  0  0  0  0  0  0  0  0
  -17.2918  -18.4435   12.6332 N   0  0  0  0  0  0  0  0  0  0  0  0
  -18.4833  -19.1543   12.6665 N   0  0  0  0  0  0  0  0  0  0  0  0
  -17.0051  -15.9335   13.1287 N   0  0  0  0  0  0  0  0  0  0  0  0
  1 17  2  0
 18  1  1  0
  1 21  1  0
  2 18  2  0
 19  2  1  0
  3 19  1  0
 20  3  2  0
  4  5  1  0
 21  4  2  0
  5 22  2  0
  5 24  1  0
  7  6  3  0
  8  7  1  0
  9  8  2  0
  8 13  1  0
  9 10  1  0
 14  9  1  0
 10 11  2  0
 11 12  1  0
 13 12  2  0
 15 14  1  0
 15 16  1  0
 15 20  1  0
 16 17  1  0
 16 19  2  0
 21 23  1  0
 22 23  1  0
M  END
$$$$
