
     RDKit          3D

 24 27  0  0  0  0  0  0  0  0999 V2000
  -15.9104  -24.7354    6.5860 C   0  0  0  0  0  0  0  0  0  0  0  0
  -16.9766  -26.7409    7.3211 C   0  0  0  0  0  0  0  0  0  0  0  0
  -19.4433  -26.7240    7.1688 C   0  0  0  0  0  0  0  0  0  0  0  0
  -14.6007  -22.7654    5.6497 C   0  0  0  0  0  0  0  0  0  0  0  0
  -13.1910  -22.3382    5.7723 C   0  0  0  0  0  0  0  0  0  0  0  0
  -21.9842  -21.1527    3.1073 N   0  0  0  0  0  0  0  0  0  0  0  0
  -22.0272  -21.5805    4.5109 C   0  0  0  0  0  0  0  0  0  0  0  0
  -22.0473  -22.0317    6.0240 C   0  0  0  0  0  0  0  0  0  0  0  0
  -21.2050  -23.0194    6.4066 C   0  0  0  0  0  0  0  0  0  0  0  0
  -21.1155  -23.3500    7.6126 C   0  0  0  0  0  0  0  0  0  0  0  0
  -21.8564  -22.7246    8.6476 C   0  0  0  0  0  0  0  0  0  0  0  0
  -22.7560  -21.6228    8.2307 C   0  0  0  0  0  0  0  0  0  0  0  0
  -22.7423  -21.4139    6.8780 C   0  0  0  0  0  0  0  0  0  0  0  0
  -20.2951  -23.7469    5.3215 C   0  0  0  0  0  0  0  0  0  0  0  0
  -19.5921  -24.7448    6.1614 N   0  0  0  0  0  0  0  0  0  0  0  0
  -18.3218  -24.9561    6.3249 C   0  0  0  0  0  0  0  0  0  0  0  0
  -17.0345  -24.2156    6.1912 C   0  0  0  0  0  0  0  0  0  0  0  0
  -15.7685  -25.9796    7.1473 C   0  0  0  0  0  0  0  0  0  0  0  0
  -18.0814  -26.2000    6.9312 C   0  0  0  0  0  0  0  0  0  0  0  0
  -20.2506  -25.7877    6.6757 C   0  0  0  0  0  0  0  0  0  0  0  0
  -14.7028  -23.8062    6.6621 C   0  0  0  0  0  0  0  0  0  0  0  0
  -12.6282  -23.0708    6.7453 N   0  0  0  0  0  0  0  0  0  0  0  0
  -13.6552  -23.9019    7.1705 N   0  0  0  0  0  0  0  0  0  0  0  0
  -12.7337  -21.4052    4.7851 N   0  0  0  0  0  0  0  0  0  0  0  0
  1 17  2  0
 18  1  1  0
  1 21  1  0
  2 18  2  0
 19  2  1  0
  3 19  1  0
 20  3  2  0
  4  5  1  0
 21  4  2  0
  5 22  2  0
  5 24  1  0
  7  6  3  0
  8  7  1  0
  9  8  2  0
  8 13  1  0
  9 10  1  0
 14  9  1  0
 10 11  2  0
 11 12  1  0
 13 12  2  0
 15 14  1  0
 15 16  1  0
 15 20  1  0
 16 17  1  0
 16 19  2  0
 21 23  1  0
 22 23  1  0
M  END
$$$$
