
     RDKit          3D

 15 16  0  0  0  0  0  0  0  0999 V2000
    0.9877   28.7167   29.7284 N   0  0  0  0  0  4  0  0  0  0  0  0
    1.7848   27.9003   28.7777 C   0  0  2  0  0  0  0  0  0  0  0  0
    2.6235   27.0236   29.5772 C   0  0  0  0  0  0  0  0  0  0  0  0
    2.4788   26.8390   30.9517 O   0  0  0  0  0  1  0  0  0  0  0  0
    2.5059   28.8805   27.9120 C   0  0  0  0  0  0  0  0  0  0  0  0
    1.6635   29.5091   26.8895 C   0  0  0  0  0  0  0  0  0  0  0  0
    0.7732   30.5421   27.1910 C   0  0  0  0  0  0  0  0  0  0  0  0
    1.5166   29.2711   25.5559 C   0  0  0  0  0  0  0  0  0  0  0  0
    0.1094   30.9195   26.0906 N   0  0  0  0  0  0  0  0  0  0  0  0
    0.5529   30.1540   25.0914 C   0  0  0  0  0  0  0  0  0  0  0  0
    2.1448   28.3731   24.7184 C   0  0  0  0  0  0  0  0  0  0  0  0
    0.2171   30.1260   23.7513 C   0  0  0  0  0  0  0  0  0  0  0  0
    1.8059   28.3525   23.3874 C   0  0  0  0  0  0  0  0  0  0  0  0
    0.8445   29.2275   22.9096 C   0  0  0  0  0  0  0  0  0  0  0  0
    3.5651   26.3596   29.0494 O   0  0  0  0  0  0  0  0  0  0  0  0
  2  1  1  1
  2  3  1  0
  2  5  1  0
  3  4  1  0
  3 15  2  0
  5  6  1  0
  6  7  2  0
  6  8  1  0
  7  9  1  0
  8 10  2  0
  8 11  1  0
  9 10  1  0
 10 12  1  0
 11 13  2  0
 12 14  2  0
 13 14  1  0
M  CHG  2   1   1   4  -1
M  END
$$$$
