
     RDKit          3D

 15 16  0  0  0  0  0  0  0  0999 V2000
    0.8755   27.7406   29.5382 N   0  0  0  0  0  4  0  0  0  0  0  0
    2.0453   27.3044   28.7338 C   0  0  2  0  0  0  0  0  0  0  0  0
    2.9854   26.6920   29.6572 C   0  0  0  0  0  0  0  0  0  0  0  0
    2.7500   26.5275   31.0217 O   0  0  0  0  0  1  0  0  0  0  0  0
    2.5283   28.5292   28.0292 C   0  0  0  0  0  0  0  0  0  0  0  0
    1.7349   28.8941   26.8511 C   0  0  0  0  0  0  0  0  0  0  0  0
    0.3722   29.1884   26.9340 C   0  0  0  0  0  0  0  0  0  0  0  0
    2.0576   29.0023   25.5317 C   0  0  0  0  0  0  0  0  0  0  0  0
   -0.1186   29.4636   25.7185 N   0  0  0  0  0  0  0  0  0  0  0  0
    0.8964   29.3534   24.8591 C   0  0  0  0  0  0  0  0  0  0  0  0
    3.2576   28.8340   24.8729 C   0  0  0  0  0  0  0  0  0  0  0  0
    0.9511   29.5364   23.4905 C   0  0  0  0  0  0  0  0  0  0  0  0
    3.3035   29.0189   23.5125 C   0  0  0  0  0  0  0  0  0  0  0  0
    2.1518   29.3685   22.8274 C   0  0  0  0  0  0  0  0  0  0  0  0
    4.1089   26.2629   29.2576 O   0  0  0  0  0  0  0  0  0  0  0  0
  2  1  1  1
  2  3  1  0
  2  5  1  0
  3  4  1  0
  3 15  2  0
  5  6  1  0
  6  7  2  0
  6  8  1  0
  7  9  1  0
  8 10  2  0
  8 11  1  0
  9 10  1  0
 10 12  1  0
 11 13  2  0
 12 14  2  0
 13 14  1  0
M  CHG  2   1   1   4  -1
M  END
$$$$
