
     RDKit          3D

 15 16  0  0  0  0  0  0  0  0999 V2000
    2.8300   29.3623   27.7246 N   0  0  0  0  0  4  0  0  0  0  0  0
    1.8570   28.2465   27.6058 C   0  0  2  0  0  0  0  0  0  0  0  0
    2.1127   27.3460   28.7171 C   0  0  0  0  0  0  0  0  0  0  0  0
    1.5383   26.0823   28.8505 O   0  0  0  0  0  1  0  0  0  0  0  0
    2.0654   27.6743   26.2423 C   0  0  0  0  0  0  0  0  0  0  0  0
    1.4988   28.4853   25.1599 C   0  0  0  0  0  0  0  0  0  0  0  0
    2.2915   29.2957   24.3442 C   0  0  0  0  0  0  0  0  0  0  0  0
    0.2184   28.6683   24.7314 C   0  0  0  0  0  0  0  0  0  0  0  0
    1.5300   29.9474   23.4558 N   0  0  0  0  0  0  0  0  0  0  0  0
    0.2688   29.5740   23.6820 C   0  0  0  0  0  0  0  0  0  0  0  0
   -0.9711   28.1176   25.1607 C   0  0  0  0  0  0  0  0  0  0  0  0
   -0.9099   29.9308   23.0552 C   0  0  0  0  0  0  0  0  0  0  0  0
   -2.1382   28.4769   24.5315 C   0  0  0  0  0  0  0  0  0  0  0  0
   -2.1033   29.3809   23.4830 C   0  0  0  0  0  0  0  0  0  0  0  0
    2.8961   27.6741   29.6576 O   0  0  0  0  0  0  0  0  0  0  0  0
  2  1  1  1
  2  3  1  0
  2  5  1  0
  3  4  1  0
  3 15  2  0
  5  6  1  0
  6  7  2  0
  6  8  1  0
  7  9  1  0
  8 10  2  0
  8 11  1  0
  9 10  1  0
 10 12  1  0
 11 13  2  0
 12 14  2  0
 13 14  1  0
M  CHG  2   1   1   4  -1
M  END
$$$$
