
     RDKit          3D

 15 16  0  0  0  0  0  0  0  0999 V2000
    3.0641   29.3211   28.9636 N   0  0  0  0  0  4  0  0  0  0  0  0
    2.2975   28.1132   28.5649 C   0  0  2  0  0  0  0  0  0  0  0  0
    2.7098   27.0411   29.4548 C   0  0  0  0  0  0  0  0  0  0  0  0
    2.1908   25.7474   29.4172 O   0  0  0  0  0  1  0  0  0  0  0  0
    2.5951   27.9079   27.1160 C   0  0  0  0  0  0  0  0  0  0  0  0
    1.8360   28.7850   26.2189 C   0  0  0  0  0  0  0  0  0  0  0  0
    2.2666   30.0745   25.8990 C   0  0  0  0  0  0  0  0  0  0  0  0
    0.6520   28.6173   25.5656 C   0  0  0  0  0  0  0  0  0  0  0  0
    1.3846   30.6708   25.0864 N   0  0  0  0  0  0  0  0  0  0  0  0
    0.3997   29.7949   24.8774 C   0  0  0  0  0  0  0  0  0  0  0  0
   -0.2105   27.5424   25.5091 C   0  0  0  0  0  0  0  0  0  0  0  0
   -0.7508   29.8867   24.1174 C   0  0  0  0  0  0  0  0  0  0  0  0
   -1.3513   27.6415   24.7505 C   0  0  0  0  0  0  0  0  0  0  0  0
   -1.6169   28.8116   24.0587 C   0  0  0  0  0  0  0  0  0  0  0  0
    3.5914   27.2329   30.3449 O   0  0  0  0  0  0  0  0  0  0  0  0
  2  1  1  1
  2  3  1  0
  2  5  1  0
  3  4  1  0
  3 15  2  0
  5  6  1  0
  6  7  2  0
  6  8  1  0
  7  9  1  0
  8 10  2  0
  8 11  1  0
  9 10  1  0
 10 12  1  0
 11 13  2  0
 12 14  2  0
 13 14  1  0
M  CHG  2   1   1   4  -1
M  END
$$$$
