
     RDKit          3D

 15 16  0  0  0  0  0  0  0  0999 V2000
    1.3665   30.0216   28.7371 N   0  0  0  0  0  4  0  0  0  0  0  0
    1.4463   28.8612   27.8136 C   0  0  2  0  0  0  0  0  0  0  0  0
    2.0414   27.7678   28.5631 C   0  0  0  0  0  0  0  0  0  0  0  0
    2.4725   27.8668   29.8855 O   0  0  0  0  0  1  0  0  0  0  0  0
    2.2237   29.3401   26.6319 C   0  0  0  0  0  0  0  0  0  0  0  0
    1.3940   29.8605   25.5406 C   0  0  0  0  0  0  0  0  0  0  0  0
    0.4369   30.8571   25.7438 C   0  0  0  0  0  0  0  0  0  0  0  0
    1.3187   29.5388   24.2186 C   0  0  0  0  0  0  0  0  0  0  0  0
   -0.1976   31.1328   24.5970 N   0  0  0  0  0  0  0  0  0  0  0  0
    0.3298   30.3378   23.6638 C   0  0  0  0  0  0  0  0  0  0  0  0
    2.0306   28.6313   23.4622 C   0  0  0  0  0  0  0  0  0  0  0  0
    0.0549   30.2142   22.3152 C   0  0  0  0  0  0  0  0  0  0  0  0
    1.7517   28.5155   22.1221 C   0  0  0  0  0  0  0  0  0  0  0  0
    0.7662   29.3060   21.5546 C   0  0  0  0  0  0  0  0  0  0  0  0
    2.2083   26.6279   28.0351 O   0  0  0  0  0  0  0  0  0  0  0  0
  2  1  1  1
  2  3  1  0
  2  5  1  0
  3  4  1  0
  3 15  2  0
  5  6  1  0
  6  7  2  0
  6  8  1  0
  7  9  1  0
  8 10  2  0
  8 11  1  0
  9 10  1  0
 10 12  1  0
 11 13  2  0
 12 14  2  0
 13 14  1  0
M  CHG  2   1   1   4  -1
M  END
$$$$
