
     RDKit          3D

 15 16  0  0  0  0  0  0  0  0999 V2000
   -0.1910   30.4909   22.7111 N   0  0  0  0  0  4  0  0  0  0  0  0
    0.2010   29.3609   23.5915 C   0  0  2  0  0  0  0  0  0  0  0  0
   -1.0035   28.9252   24.2774 C   0  0  0  0  0  0  0  0  0  0  0  0
   -1.1298   27.7061   24.9425 O   0  0  0  0  0  1  0  0  0  0  0  0
    1.2920   29.8897   24.4633 C   0  0  0  0  0  0  0  0  0  0  0  0
    1.8570   28.8975   25.3835 C   0  0  0  0  0  0  0  0  0  0  0  0
    2.0855   27.5737   25.0014 C   0  0  0  0  0  0  0  0  0  0  0  0
    2.2338   28.9759   26.6906 C   0  0  0  0  0  0  0  0  0  0  0  0
    2.5796   26.8719   26.0296 N   0  0  0  0  0  0  0  0  0  0  0  0
    2.6737   27.7137   27.0609 C   0  0  0  0  0  0  0  0  0  0  0  0
    2.2373   30.0358   27.5733 C   0  0  0  0  0  0  0  0  0  0  0  0
    3.1250   27.5200   28.3526 C   0  0  0  0  0  0  0  0  0  0  0  0
    2.6886   29.8349   28.8551 C   0  0  0  0  0  0  0  0  0  0  0  0
    3.1298   28.5797   29.2394 C   0  0  0  0  0  0  0  0  0  0  0  0
   -2.0397   29.6542   24.3059 O   0  0  0  0  0  0  0  0  0  0  0  0
  2  1  1  6
  2  3  1  0
  2  5  1  0
  3  4  1  0
  3 15  2  0
  5  6  1  0
  6  7  2  0
  6  8  1  0
  7  9  1  0
  8 10  2  0
  8 11  1  0
  9 10  1  0
 10 12  1  0
 11 13  2  0
 12 14  2  0
 13 14  1  0
M  CHG  2   1   1   4  -1
M  END
$$$$
