
     RDKit          3D

 15 16  0  0  0  0  0  0  0  0999 V2000
    1.3813   29.9792   28.4254 N   0  0  0  0  0  4  0  0  0  0  0  0
    1.4462   28.5038   28.2684 C   0  0  2  0  0  0  0  0  0  0  0  0
    2.2201   27.9957   29.3883 C   0  0  0  0  0  0  0  0  0  0  0  0
    2.4803   28.7168   30.5531 O   0  0  0  0  0  1  0  0  0  0  0  0
    2.0289   28.2686   26.9137 C   0  0  0  0  0  0  0  0  0  0  0  0
    1.0376   28.2336   25.8336 C   0  0  0  0  0  0  0  0  0  0  0  0
    0.1684   27.1549   25.6562 C   0  0  0  0  0  0  0  0  0  0  0  0
    0.7523   29.1083   24.8286 C   0  0  0  0  0  0  0  0  0  0  0  0
   -0.6143   27.3595   24.5888 N   0  0  0  0  0  0  0  0  0  0  0  0
   -0.2682   28.5430   24.0782 C   0  0  0  0  0  0  0  0  0  0  0  0
    1.2874   30.3409   24.5174 C   0  0  0  0  0  0  0  0  0  0  0  0
   -0.7559   29.2394   22.9889 C   0  0  0  0  0  0  0  0  0  0  0  0
    0.7960   31.0271   23.4336 C   0  0  0  0  0  0  0  0  0  0  0  0
   -0.2220   30.4746   22.6744 C   0  0  0  0  0  0  0  0  0  0  0  0
    2.7190   26.8310   29.3634 O   0  0  0  0  0  0  0  0  0  0  0  0
  2  1  1  1
  2  3  1  0
  2  5  1  0
  3  4  1  0
  3 15  2  0
  5  6  1  0
  6  7  2  0
  6  8  1  0
  7  9  1  0
  8 10  2  0
  8 11  1  0
  9 10  1  0
 10 12  1  0
 11 13  2  0
 12 14  2  0
 13 14  1  0
M  CHG  2   1   1   4  -1
M  END
$$$$
