
     RDKit          3D

 15 16  0  0  0  0  0  0  0  0999 V2000
    3.3834   29.0976   28.5038 N   0  0  0  0  0  4  0  0  0  0  0  0
    2.2561   28.1329   28.5679 C   0  0  2  0  0  0  0  0  0  0  0  0
    2.6009   27.1505   29.5814 C   0  0  0  0  0  0  0  0  0  0  0  0
    3.8069   27.1360   30.2814 O   0  0  0  0  0  1  0  0  0  0  0  0
    2.0964   27.6077   27.1792 C   0  0  0  0  0  0  0  0  0  0  0  0
    1.2327   28.4286   26.3244 C   0  0  0  0  0  0  0  0  0  0  0  0
   -0.0194   28.8805   26.7472 C   0  0  0  0  0  0  0  0  0  0  0  0
    1.3808   28.8870   25.0498 C   0  0  0  0  0  0  0  0  0  0  0  0
   -0.6125   29.5839   25.7739 N   0  0  0  0  0  0  0  0  0  0  0  0
    0.2290   29.5942   24.7382 C   0  0  0  0  0  0  0  0  0  0  0  0
    2.4186   28.7541   24.1511 C   0  0  0  0  0  0  0  0  0  0  0  0
    0.1250   30.1775   23.4898 C   0  0  0  0  0  0  0  0  0  0  0  0
    2.3076   29.3379   22.9127 C   0  0  0  0  0  0  0  0  0  0  0  0
    1.1629   30.0461   22.5870 C   0  0  0  0  0  0  0  0  0  0  0  0
    1.7970   26.2211   29.8914 O   0  0  0  0  0  0  0  0  0  0  0  0
  2  1  1  6
  2  3  1  0
  2  5  1  0
  3  4  1  0
  3 15  2  0
  5  6  1  0
  6  7  2  0
  6  8  1  0
  7  9  1  0
  8 10  2  0
  8 11  1  0
  9 10  1  0
 10 12  1  0
 11 13  2  0
 12 14  2  0
 13 14  1  0
M  CHG  2   1   1   4  -1
M  END
$$$$
