
     RDKit          3D

 15 16  0  0  0  0  0  0  0  0999 V2000
    3.2950   29.0222   29.2641 N   0  0  0  0  0  4  0  0  0  0  0  0
    2.3931   27.9363   28.8026 C   0  0  2  0  0  0  0  0  0  0  0  0
    2.7453   26.7473   29.5599 C   0  0  0  0  0  0  0  0  0  0  0  0
    2.0689   25.5312   29.4698 O   0  0  0  0  0  1  0  0  0  0  0  0
    2.5905   27.8499   27.3250 C   0  0  0  0  0  0  0  0  0  0  0  0
    1.7113   28.7322   26.5510 C   0  0  0  0  0  0  0  0  0  0  0  0
    1.5958   30.0963   26.8277 C   0  0  0  0  0  0  0  0  0  0  0  0
    0.8616   28.4916   25.5134 C   0  0  0  0  0  0  0  0  0  0  0  0
    0.7133   30.6659   25.9966 N   0  0  0  0  0  0  0  0  0  0  0  0
    0.2609   29.7004   25.1940 C   0  0  0  0  0  0  0  0  0  0  0  0
    0.5744   27.3318   24.8242 C   0  0  0  0  0  0  0  0  0  0  0  0
   -0.6509   29.7354   24.1563 C   0  0  0  0  0  0  0  0  0  0  0  0
   -0.3324   27.3755   23.7933 C   0  0  0  0  0  0  0  0  0  0  0  0
   -0.9409   28.5752   23.4639 C   0  0  0  0  0  0  0  0  0  0  0  0
    3.7179   26.7538   30.3723 O   0  0  0  0  0  0  0  0  0  0  0  0
  2  1  1  1
  2  3  1  0
  2  5  1  0
  3  4  1  0
  3 15  2  0
  5  6  1  0
  6  7  2  0
  6  8  1  0
  7  9  1  0
  8 10  2  0
  8 11  1  0
  9 10  1  0
 10 12  1  0
 11 13  2  0
 12 14  2  0
 13 14  1  0
M  CHG  2   1   1   4  -1
M  END
$$$$
