
     RDKit          3D

 15 16  0  0  0  0  0  0  0  0999 V2000
    3.4305   26.9875   27.3293 N   0  0  0  0  0  4  0  0  0  0  0  0
    2.4906   27.7263   28.2105 C   0  0  2  0  0  0  0  0  0  0  0  0
    2.6546   27.1840   29.5485 C   0  0  0  0  0  0  0  0  0  0  0  0
    3.5199   26.1389   29.8704 O   0  0  0  0  0  1  0  0  0  0  0  0
    1.1407   27.5497   27.5969 C   0  0  0  0  0  0  0  0  0  0  0  0
    0.7780   28.5969   26.6366 C   0  0  0  0  0  0  0  0  0  0  0  0
    1.0803   29.9430   26.8542 C   0  0  0  0  0  0  0  0  0  0  0  0
    0.1129   28.5542   25.4481 C   0  0  0  0  0  0  0  0  0  0  0  0
    0.6196   30.6919   25.8439 N   0  0  0  0  0  0  0  0  0  0  0  0
    0.0301   29.8588   24.9841 C   0  0  0  0  0  0  0  0  0  0  0  0
   -0.4120   27.4946   24.7380 C   0  0  0  0  0  0  0  0  0  0  0  0
   -0.5989   30.0957   23.7767 C   0  0  0  0  0  0  0  0  0  0  0  0
   -1.0347   27.7387   23.5382 C   0  0  0  0  0  0  0  0  0  0  0  0
   -1.1260   29.0363   23.0629 C   0  0  0  0  0  0  0  0  0  0  0  0
    1.9950   27.6464   30.5268 O   0  0  0  0  0  0  0  0  0  0  0  0
  2  1  1  6
  2  3  1  0
  2  5  1  0
  3  4  1  0
  3 15  2  0
  5  6  1  0
  6  7  2  0
  6  8  1  0
  7  9  1  0
  8 10  2  0
  8 11  1  0
  9 10  1  0
 10 12  1  0
 11 13  2  0
 12 14  2  0
 13 14  1  0
M  CHG  2   1   1   4  -1
M  END
$$$$
