
     RDKit          3D

 15 16  0  0  0  0  0  0  0  0999 V2000
    2.5593   28.4847   29.4786 N   0  0  0  0  0  4  0  0  0  0  0  0
    1.6668   27.3896   29.0206 C   0  0  2  0  0  0  0  0  0  0  0  0
    1.8232   26.2971   29.9657 C   0  0  0  0  0  0  0  0  0  0  0  0
    2.7189   26.3068   31.0344 O   0  0  0  0  0  1  0  0  0  0  0  0
    2.0761   27.0982   27.6144 C   0  0  0  0  0  0  0  0  0  0  0  0
    1.8414   28.2048   26.6812 C   0  0  0  0  0  0  0  0  0  0  0  0
    0.5566   28.6533   26.3671 C   0  0  0  0  0  0  0  0  0  0  0  0
    2.6922   28.9726   25.9441 C   0  0  0  0  0  0  0  0  0  0  0  0
    0.6177   29.6513   25.4760 N   0  0  0  0  0  0  0  0  0  0  0  0
    1.9102   29.8535   25.2117 C   0  0  0  0  0  0  0  0  0  0  0  0
    4.0690   28.9801   25.8611 C   0  0  0  0  0  0  0  0  0  0  0  0
    2.5351   30.7600   24.3767 C   0  0  0  0  0  0  0  0  0  0  0  0
    4.6823   29.8851   25.0294 C   0  0  0  0  0  0  0  0  0  0  0  0
    3.9143   30.7701   24.2912 C   0  0  0  0  0  0  0  0  0  0  0  0
    1.1318   25.2399   29.8633 O   0  0  0  0  0  0  0  0  0  0  0  0
  2  1  1  1
  2  3  1  0
  2  5  1  0
  3  4  1  0
  3 15  2  0
  5  6  1  0
  6  7  2  0
  6  8  1  0
  7  9  1  0
  8 10  2  0
  8 11  1  0
  9 10  1  0
 10 12  1  0
 11 13  2  0
 12 14  2  0
 13 14  1  0
M  CHG  2   1   1   4  -1
M  END
$$$$
