
     RDKit          3D

 15 16  0  0  0  0  0  0  0  0999 V2000
    2.5639   29.4007   29.6699 N   0  0  0  0  0  4  0  0  0  0  0  0
    2.2729   28.1305   28.9573 C   0  0  2  0  0  0  0  0  0  0  0  0
    2.7112   27.0514   29.8260 C   0  0  0  0  0  0  0  0  0  0  0  0
    3.6554   27.1967   30.8418 O   0  0  0  0  0  1  0  0  0  0  0  0
    2.9755   28.2358   27.6439 C   0  0  0  0  0  0  0  0  0  0  0  0
    2.0788   28.2343   26.4835 C   0  0  0  0  0  0  0  0  0  0  0  0
    1.9321   27.1172   25.6582 C   0  0  0  0  0  0  0  0  0  0  0  0
    1.2770   29.1976   25.9489 C   0  0  0  0  0  0  0  0  0  0  0  0
    1.0787   27.3849   24.6613 N   0  0  0  0  0  0  0  0  0  0  0  0
    0.6747   28.6459   24.8279 C   0  0  0  0  0  0  0  0  0  0  0  0
    1.0201   30.4920   26.3503 C   0  0  0  0  0  0  0  0  0  0  0  0
   -0.2049   29.4215   24.0969 C   0  0  0  0  0  0  0  0  0  0  0  0
    0.1436   31.2558   25.6187 C   0  0  0  0  0  0  0  0  0  0  0  0
   -0.4645   30.7187   24.4963 C   0  0  0  0  0  0  0  0  0  0  0  0
    2.2443   25.8800   29.7000 O   0  0  0  0  0  0  0  0  0  0  0  0
  2  1  1  1
  2  3  1  0
  2  5  1  0
  3  4  1  0
  3 15  2  0
  5  6  1  0
  6  7  2  0
  6  8  1  0
  7  9  1  0
  8 10  2  0
  8 11  1  0
  9 10  1  0
 10 12  1  0
 11 13  2  0
 12 14  2  0
 13 14  1  0
M  CHG  2   1   1   4  -1
M  END
$$$$
