
     RDKit          3D

 15 16  0  0  0  0  0  0  0  0999 V2000
   -0.4182   31.2169   22.8542 N   0  0  0  0  0  4  0  0  0  0  0  0
   -0.7696   29.8637   23.3553 C   0  0  2  0  0  0  0  0  0  0  0  0
   -2.1276   29.5923   22.9156 C   0  0  0  0  0  0  0  0  0  0  0  0
   -2.7161   28.3281   22.9221 O   0  0  0  0  0  1  0  0  0  0  0  0
   -0.5612   29.9152   24.8331 C   0  0  0  0  0  0  0  0  0  0  0  0
    0.7925   29.5468   25.2600 C   0  0  0  0  0  0  0  0  0  0  0  0
    1.8452   29.4033   24.3535 C   0  0  0  0  0  0  0  0  0  0  0  0
    1.3153   29.2549   26.4840 C   0  0  0  0  0  0  0  0  0  0  0  0
    2.9635   29.0385   24.9940 N   0  0  0  0  0  0  0  0  0  0  0  0
    2.6532   28.9452   26.2886 C   0  0  0  0  0  0  0  0  0  0  0  0
    0.7415   29.2438   27.7382 C   0  0  0  0  0  0  0  0  0  0  0  0
    3.4258   28.6157   27.3859 C   0  0  0  0  0  0  0  0  0  0  0  0
    1.5168   28.9161   28.8237 C   0  0  0  0  0  0  0  0  0  0  0  0
    2.8539   28.6035   28.6438 C   0  0  0  0  0  0  0  0  0  0  0  0
   -2.8737   30.5220   22.4856 O   0  0  0  0  0  0  0  0  0  0  0  0
  2  1  1  6
  2  3  1  0
  2  5  1  0
  3  4  1  0
  3 15  2  0
  5  6  1  0
  6  7  2  0
  6  8  1  0
  7  9  1  0
  8 10  2  0
  8 11  1  0
  9 10  1  0
 10 12  1  0
 11 13  2  0
 12 14  2  0
 13 14  1  0
M  CHG  2   1   1   4  -1
M  END
$$$$
