
     RDKit          3D

 15 16  0  0  0  0  0  0  0  0999 V2000
    3.3999   29.3014   28.4126 N   0  0  0  0  0  4  0  0  0  0  0  0
    2.1813   28.5383   28.0405 C   0  0  2  0  0  0  0  0  0  0  0  0
    2.1430   27.3644   28.8959 C   0  0  0  0  0  0  0  0  0  0  0  0
    1.0980   27.0640   29.7689 O   0  0  0  0  0  1  0  0  0  0  0  0
    2.3040   28.2734   26.5760 C   0  0  0  0  0  0  0  0  0  0  0  0
    1.3918   29.0665   25.7458 C   0  0  0  0  0  0  0  0  0  0  0  0
    1.6737   30.3850   25.3814 C   0  0  0  0  0  0  0  0  0  0  0  0
    0.1744   28.7844   25.2025 C   0  0  0  0  0  0  0  0  0  0  0  0
    0.6725   30.8886   24.6480 N   0  0  0  0  0  0  0  0  0  0  0  0
   -0.2437   29.9251   24.5331 C   0  0  0  0  0  0  0  0  0  0  0  0
   -0.5887   27.6357   25.2296 C   0  0  0  0  0  0  0  0  0  0  0  0
   -1.4607   29.9029   23.8790 C   0  0  0  0  0  0  0  0  0  0  0  0
   -1.7967   27.6218   24.5759 C   0  0  0  0  0  0  0  0  0  0  0  0
   -2.2277   28.7537   23.9043 C   0  0  0  0  0  0  0  0  0  0  0  0
    3.0917   26.5241   28.8958 O   0  0  0  0  0  0  0  0  0  0  0  0
  2  1  1  1
  2  3  1  0
  2  5  1  0
  3  4  1  0
  3 15  2  0
  5  6  1  0
  6  7  2  0
  6  8  1  0
  7  9  1  0
  8 10  2  0
  8 11  1  0
  9 10  1  0
 10 12  1  0
 11 13  2  0
 12 14  2  0
 13 14  1  0
M  CHG  2   1   1   4  -1
M  END
$$$$
