
     RDKit          3D

 17 18  0  0  0  0  0  0  0  0999 V2000
  -17.4826  -33.3848  -11.7579 C   0  0  0  0  0  0  0  0  0  0  0  0
  -16.7331  -33.6301  -12.9447 C   0  0  0  0  0  0  0  0  0  0  0  0
  -15.6059  -34.2784  -12.8696 C   0  0  0  0  0  0  0  0  0  0  0  0
  -15.1097  -34.7323  -11.6676 C   0  0  0  0  0  0  0  0  0  0  0  0
  -15.7752  -34.5230  -10.4416 C   0  0  0  0  0  0  0  0  0  0  0  0
  -17.0588  -33.7936  -10.6256 C   0  0  0  0  0  0  0  0  0  0  0  0
  -20.8338  -26.7750  -12.6181 C   0  0  0  0  0  0  0  0  0  0  0  0
  -21.1419  -28.1318  -12.2300 C   0  0  0  0  0  0  0  0  0  0  0  0
  -22.3405  -28.4390  -11.7470 C   0  0  0  0  0  0  0  0  0  0  0  0
  -21.6743  -30.6546  -11.5075 C   0  0  0  0  0  0  0  0  0  0  0  0
  -20.3616  -30.3345  -12.0304 C   0  0  0  0  0  0  0  0  0  0  0  0
  -20.1003  -29.0625  -12.3974 C   0  0  0  0  0  0  0  0  0  0  0  0
  -19.4341  -31.2943  -11.9368 C   0  0  0  0  0  0  0  0  0  0  0  0
  -18.4790  -32.3067  -11.8560 C   0  0  0  0  0  0  0  0  0  0  0  0
  -22.6114  -29.7604  -11.3709 N   0  0  0  0  0  0  0  0  0  0  0  0
  -19.6579  -26.4368  -12.9982 O   0  0  0  0  0  0  0  0  0  0  0  0
  -21.7428  -25.6673  -12.6302 O   0  0  0  0  0  0  0  0  0  0  0  0
  1  2  2  0
  1  6  1  0
 14  1  1  0
  2  3  1  0
  3  4  2  0
  5  4  1  0
  6  5  2  0
  8  7  1  0
  7 16  2  0
  7 17  1  0
  8  9  2  0
 12  8  1  0
 15  9  1  0
 11 10  1  0
 10 15  2  0
 11 12  2  0
 13 11  1  0
 13 14  3  0
M  END
$$$$
