
     RDKit          3D

 17 18  0  0  0  0  0  0  0  0999 V2000
   -2.1838  -18.3300    2.3041 C   0  0  0  0  0  0  0  0  0  0  0  0
   -1.3910  -19.3748    1.7469 C   0  0  0  0  0  0  0  0  0  0  0  0
   -0.8544  -19.2159    0.5707 C   0  0  0  0  0  0  0  0  0  0  0  0
   -1.0362  -18.0620   -0.1588 C   0  0  0  0  0  0  0  0  0  0  0  0
   -1.8159  -16.9823    0.3061 C   0  0  0  0  0  0  0  0  0  0  0  0
   -2.3717  -17.2436    1.6612 C   0  0  0  0  0  0  0  0  0  0  0  0
   -4.9146  -21.0570    8.6882 C   0  0  0  0  0  0  0  0  0  0  0  0
   -5.3703  -20.5025    7.4348 C   0  0  0  0  0  0  0  0  0  0  0  0
   -6.6617  -20.5106    7.1240 C   0  0  0  0  0  0  0  0  0  0  0  0
   -6.1785  -19.4783    5.0964 C   0  0  0  0  0  0  0  0  0  0  0  0
   -4.7665  -19.4643    5.4203 C   0  0  0  0  0  0  0  0  0  0  0  0
   -4.3653  -19.9775    6.6021 C   0  0  0  0  0  0  0  0  0  0  0  0
   -3.9339  -19.1092    4.4348 C   0  0  0  0  0  0  0  0  0  0  0  0
   -3.0848  -18.7380    3.3932 C   0  0  0  0  0  0  0  0  0  0  0  0
   -7.0767  -19.9736    5.8991 N   0  0  0  0  0  0  0  0  0  0  0  0
   -3.9414  -20.5353    9.3381 O   0  0  0  0  0  0  0  0  0  0  0  0
   -5.4480  -22.2100    9.3514 O   0  0  0  0  0  0  0  0  0  0  0  0
  1  2  2  0
  1  6  1  0
 14  1  1  0
  2  3  1  0
  3  4  2  0
  5  4  1  0
  6  5  2  0
  8  7  1  0
  7 16  2  0
  7 17  1  0
  8  9  2  0
 12  8  1  0
 15  9  1  0
 11 10  1  0
 10 15  2  0
 11 12  2  0
 13 11  1  0
 13 14  3  0
M  END
$$$$
