
     RDKit          3D

 17 18  0  0  0  0  0  0  0  0999 V2000
   -6.8270  -33.4415  -17.2744 C   0  0  0  0  0  0  0  0  0  0  0  0
   -7.4461  -32.2101  -16.9124 C   0  0  0  0  0  0  0  0  0  0  0  0
   -7.2362  -31.7099  -15.7282 C   0  0  0  0  0  0  0  0  0  0  0  0
   -6.4327  -32.3431  -14.8061 C   0  0  0  0  0  0  0  0  0  0  0  0
   -5.7915  -33.5712  -15.0711 C   0  0  0  0  0  0  0  0  0  0  0  0
   -6.0717  -34.0561  -16.4496 C   0  0  0  0  0  0  0  0  0  0  0  0
  -10.9505  -38.0972  -21.3592 C   0  0  0  0  0  0  0  0  0  0  0  0
   -9.8919  -37.1287  -21.5253 C   0  0  0  0  0  0  0  0  0  0  0  0
   -9.2760  -36.9972  -22.6949 C   0  0  0  0  0  0  0  0  0  0  0  0
   -7.9243  -35.3325  -21.7940 C   0  0  0  0  0  0  0  0  0  0  0  0
   -8.5850  -35.4659  -20.5115 C   0  0  0  0  0  0  0  0  0  0  0  0
   -9.5791  -36.3693  -20.3831 C   0  0  0  0  0  0  0  0  0  0  0  0
   -8.0314  -34.8082  -19.4863 C   0  0  0  0  0  0  0  0  0  0  0  0
   -7.4384  -34.1400  -18.4159 C   0  0  0  0  0  0  0  0  0  0  0  0
   -8.2477  -36.0561  -22.8276 N   0  0  0  0  0  0  0  0  0  0  0  0
  -11.0616  -38.7924  -20.2887 O   0  0  0  0  0  0  0  0  0  0  0  0
  -11.9724  -38.4114  -22.3135 O   0  0  0  0  0  0  0  0  0  0  0  0
  1  2  2  0
  1  6  1  0
 14  1  1  0
  2  3  1  0
  3  4  2  0
  5  4  1  0
  6  5  2  0
  8  7  1  0
  7 16  2  0
  7 17  1  0
  8  9  2  0
 12  8  1  0
 15  9  1  0
 11 10  1  0
 10 15  2  0
 11 12  2  0
 13 11  1  0
 13 14  3  0
M  END
$$$$
