
     RDKit          3D

 17 18  0  0  0  0  0  0  0  0999 V2000
   -0.1770  -21.1902    1.8609 C   0  0  0  0  0  0  0  0  0  0  0  0
   -0.9072  -21.8536    2.8892 C   0  0  0  0  0  0  0  0  0  0  0  0
   -0.8803  -23.1540    2.9587 C   0  0  0  0  0  0  0  0  0  0  0  0
   -0.1669  -23.9133    2.0580 C   0  0  0  0  0  0  0  0  0  0  0  0
    0.5725  -23.3444    1.0000 C   0  0  0  0  0  0  0  0  0  0  0  0
    0.5002  -21.8584    1.0102 C   0  0  0  0  0  0  0  0  0  0  0  0
   -4.2922  -15.0383    1.1411 C   0  0  0  0  0  0  0  0  0  0  0  0
   -2.9459  -15.4951    0.8854 C   0  0  0  0  0  0  0  0  0  0  0  0
   -2.0858  -14.7244    0.2292 C   0  0  0  0  0  0  0  0  0  0  0  0
   -0.4622  -16.3793    0.4169 C   0  0  0  0  0  0  0  0  0  0  0  0
   -1.3897  -17.2324    1.1319 C   0  0  0  0  0  0  0  0  0  0  0  0
   -2.6386  -16.7798    1.3694 C   0  0  0  0  0  0  0  0  0  0  0  0
   -0.9952  -18.4931    1.3442 C   0  0  0  0  0  0  0  0  0  0  0  0
   -0.5954  -19.8067    1.5862 C   0  0  0  0  0  0  0  0  0  0  0  0
   -0.7889  -15.1938   -0.0124 N   0  0  0  0  0  0  0  0  0  0  0  0
   -5.1811  -15.8156    1.6381 O   0  0  0  0  0  0  0  0  0  0  0  0
   -4.8067  -13.7252    0.8867 O   0  0  0  0  0  0  0  0  0  0  0  0
  1  2  2  0
  1  6  1  0
 14  1  1  0
  2  3  1  0
  3  4  2  0
  5  4  1  0
  6  5  2  0
  8  7  1  0
  7 16  2  0
  7 17  1  0
  8  9  2  0
 12  8  1  0
 15  9  1  0
 11 10  1  0
 10 15  2  0
 11 12  2  0
 13 11  1  0
 13 14  3  0
M  END
$$$$
