
     RDKit          3D

 17 18  0  0  0  0  0  0  0  0999 V2000
   -7.5711  -35.0640    2.4518 C   0  0  0  0  0  0  0  0  0  0  0  0
   -7.4584  -34.3090    3.6550 C   0  0  0  0  0  0  0  0  0  0  0  0
   -6.5450  -34.6254    4.5281 C   0  0  0  0  0  0  0  0  0  0  0  0
   -5.6821  -35.6793    4.3246 C   0  0  0  0  0  0  0  0  0  0  0  0
   -5.7294  -36.4901    3.1713 C   0  0  0  0  0  0  0  0  0  0  0  0
   -6.7870  -36.0448    2.2242 C   0  0  0  0  0  0  0  0  0  0  0  0
  -14.8109  -35.4013    0.7810 C   0  0  0  0  0  0  0  0  0  0  0  0
  -13.5546  -35.0476    0.1620 C   0  0  0  0  0  0  0  0  0  0  0  0
  -13.4937  -34.7890   -1.1394 C   0  0  0  0  0  0  0  0  0  0  0  0
  -11.2065  -34.4086   -0.9549 C   0  0  0  0  0  0  0  0  0  0  0  0
  -11.2566  -34.6903    0.4653 C   0  0  0  0  0  0  0  0  0  0  0  0
  -12.4434  -35.0072    1.0239 C   0  0  0  0  0  0  0  0  0  0  0  0
  -10.0794  -34.7991    1.0918 C   0  0  0  0  0  0  0  0  0  0  0  0
   -8.8567  -34.9354    1.7479 C   0  0  0  0  0  0  0  0  0  0  0  0
  -12.2621  -34.4559   -1.7165 N   0  0  0  0  0  0  0  0  0  0  0  0
  -14.8555  -36.0207    1.9017 O   0  0  0  0  0  0  0  0  0  0  0  0
  -16.1194  -35.1328    0.2619 O   0  0  0  0  0  0  0  0  0  0  0  0
  1  2  2  0
  1  6  1  0
 14  1  1  0
  2  3  1  0
  3  4  2  0
  5  4  1  0
  6  5  2  0
  8  7  1  0
  7 16  2  0
  7 17  1  0
  8  9  2  0
 12  8  1  0
 15  9  1  0
 11 10  1  0
 10 15  2  0
 11 12  2  0
 13 11  1  0
 13 14  3  0
M  END
$$$$
