
     RDKit          3D

 17 18  0  0  0  0  0  0  0  0999 V2000
   -3.0853  -15.4317   -0.0746 C   0  0  0  0  0  0  0  0  0  0  0  0
   -2.4577  -14.2105    0.3068 C   0  0  0  0  0  0  0  0  0  0  0  0
   -1.8882  -13.4706   -0.6013 C   0  0  0  0  0  0  0  0  0  0  0  0
   -1.8689  -13.8385   -1.9284 C   0  0  0  0  0  0  0  0  0  0  0  0
   -2.4513  -15.0354   -2.3951 C   0  0  0  0  0  0  0  0  0  0  0  0
   -3.0930  -15.8048   -1.2951 C   0  0  0  0  0  0  0  0  0  0  0  0
   -6.1999  -19.3274    5.4578 C   0  0  0  0  0  0  0  0  0  0  0  0
   -4.9149  -19.1452    4.8236 C   0  0  0  0  0  0  0  0  0  0  0  0
   -3.8239  -19.7000    5.3396 C   0  0  0  0  0  0  0  0  0  0  0  0
   -2.5470  -18.7753    3.6295 C   0  0  0  0  0  0  0  0  0  0  0  0
   -3.7276  -18.1619    3.0562 C   0  0  0  0  0  0  0  0  0  0  0  0
   -4.9191  -18.3555    3.6594 C   0  0  0  0  0  0  0  0  0  0  0  0
   -3.5212  -17.2861    2.0658 C   0  0  0  0  0  0  0  0  0  0  0  0
   -3.3083  -16.3912    1.0182 C   0  0  0  0  0  0  0  0  0  0  0  0
   -2.5891  -19.5017    4.7098 N   0  0  0  0  0  0  0  0  0  0  0  0
   -6.3776  -20.2063    6.3729 O   0  0  0  0  0  0  0  0  0  0  0  0
   -7.4000  -18.5986    5.1711 O   0  0  0  0  0  0  0  0  0  0  0  0
  1  2  2  0
  1  6  1  0
 14  1  1  0
  2  3  1  0
  3  4  2  0
  5  4  1  0
  6  5  2  0
  8  7  1  0
  7 16  2  0
  7 17  1  0
  8  9  2  0
 12  8  1  0
 15  9  1  0
 11 10  1  0
 10 15  2  0
 11 12  2  0
 13 11  1  0
 13 14  3  0
M  END
$$$$
