
     RDKit          3D

 17 18  0  0  0  0  0  0  0  0999 V2000
  -12.8635  -34.6016    4.8914 C   0  0  0  0  0  0  0  0  0  0  0  0
  -13.7432  -33.6877    5.5406 C   0  0  0  0  0  0  0  0  0  0  0  0
  -13.8387  -33.7014    6.8395 C   0  0  0  0  0  0  0  0  0  0  0  0
  -13.1141  -34.5834    7.6101 C   0  0  0  0  0  0  0  0  0  0  0  0
  -12.2308  -35.5323    7.0541 C   0  0  0  0  0  0  0  0  0  0  0  0
  -12.1714  -35.4312    5.5709 C   0  0  0  0  0  0  0  0  0  0  0  0
  -15.8256  -34.2002   -1.9235 C   0  0  0  0  0  0  0  0  0  0  0  0
  -14.8488  -34.9715   -1.1905 C   0  0  0  0  0  0  0  0  0  0  0  0
  -14.3041  -36.0563   -1.7298 C   0  0  0  0  0  0  0  0  0  0  0  0
  -13.0512  -36.3855    0.2020 C   0  0  0  0  0  0  0  0  0  0  0  0
  -13.6383  -35.2060    0.8046 C   0  0  0  0  0  0  0  0  0  0  0  0
  -14.5401  -34.4945    0.0965 C   0  0  0  0  0  0  0  0  0  0  0  0
  -13.3803  -35.0105    2.1028 C   0  0  0  0  0  0  0  0  0  0  0  0
  -13.1296  -34.8210    3.4612 C   0  0  0  0  0  0  0  0  0  0  0  0
  -13.3650  -36.7909   -0.9953 N   0  0  0  0  0  0  0  0  0  0  0  0
  -16.2947  -33.1005   -1.4627 O   0  0  0  0  0  0  0  0  0  0  0  0
  -16.3879  -34.5328   -3.1989 O   0  0  0  0  0  0  0  0  0  0  0  0
  1  2  2  0
  1  6  1  0
 14  1  1  0
  2  3  1  0
  3  4  2  0
  5  4  1  0
  6  5  2  0
  8  7  1  0
  7 16  2  0
  7 17  1  0
  8  9  2  0
 12  8  1  0
 15  9  1  0
 11 10  1  0
 10 15  2  0
 11 12  2  0
 13 11  1  0
 13 14  3  0
M  END
$$$$
