
     RDKit          3D

 17 18  0  0  0  0  0  0  0  0999 V2000
    0.0829  -21.2170    2.2656 C   0  0  0  0  0  0  0  0  0  0  0  0
   -0.6737  -22.4221    2.3424 C   0  0  0  0  0  0  0  0  0  0  0  0
   -0.1043  -23.5571    2.0525 C   0  0  0  0  0  0  0  0  0  0  0  0
    1.2156  -23.6276    1.6653 C   0  0  0  0  0  0  0  0  0  0  0  0
    2.0364  -22.4865    1.5475 C   0  0  0  0  0  0  0  0  0  0  0  0
    1.3099  -21.2413    1.9155 C   0  0  0  0  0  0  0  0  0  0  0  0
   -5.1861  -16.0707    3.3224 C   0  0  0  0  0  0  0  0  0  0  0  0
   -4.0441  -16.3193    2.4735 C   0  0  0  0  0  0  0  0  0  0  0  0
   -3.7921  -15.5307    1.4348 C   0  0  0  0  0  0  0  0  0  0  0  0
   -1.9261  -16.8176    0.9129 C   0  0  0  0  0  0  0  0  0  0  0  0
   -2.1893  -17.6879    2.0408 C   0  0  0  0  0  0  0  0  0  0  0  0
   -3.2553  -17.4293    2.8268 C   0  0  0  0  0  0  0  0  0  0  0  0
   -1.4568  -18.8052    2.1134 C   0  0  0  0  0  0  0  0  0  0  0  0
   -0.7112  -19.9815    2.1789 C   0  0  0  0  0  0  0  0  0  0  0  0
   -2.6828  -15.7979    0.6229 N   0  0  0  0  0  0  0  0  0  0  0  0
   -5.9919  -15.1008    3.0955 O   0  0  0  0  0  0  0  0  0  0  0  0
   -5.5636  -16.8244    4.4813 O   0  0  0  0  0  0  0  0  0  0  0  0
  1  2  2  0
  1  6  1  0
 14  1  1  0
  2  3  1  0
  3  4  2  0
  5  4  1  0
  6  5  2  0
  8  7  1  0
  7 16  2  0
  7 17  1  0
  8  9  2  0
 12  8  1  0
 15  9  1  0
 11 10  1  0
 10 15  2  0
 11 12  2  0
 13 11  1  0
 13 14  3  0
M  END
$$$$
