
     RDKit          3D

 17 18  0  0  0  0  0  0  0  0999 V2000
   -0.5651  -21.2587    1.8200 C   0  0  0  0  0  0  0  0  0  0  0  0
   -0.4172  -21.8959    0.5541 C   0  0  0  0  0  0  0  0  0  0  0  0
    0.2705  -22.9987    0.4669 C   0  0  0  0  0  0  0  0  0  0  0  0
    0.8685  -23.5687    1.5689 C   0  0  0  0  0  0  0  0  0  0  0  0
    0.7878  -23.0012    2.8577 C   0  0  0  0  0  0  0  0  0  0  0  0
   -0.0302  -21.7584    2.8654 C   0  0  0  0  0  0  0  0  0  0  0  0
   -4.5341  -14.9938    2.3079 C   0  0  0  0  0  0  0  0  0  0  0  0
   -3.2677  -15.4535    1.7870 C   0  0  0  0  0  0  0  0  0  0  0  0
   -2.5182  -14.6550    1.0354 C   0  0  0  0  0  0  0  0  0  0  0  0
   -0.9320  -16.3434    0.8267 C   0  0  0  0  0  0  0  0  0  0  0  0
   -1.7395  -17.2268    1.6430 C   0  0  0  0  0  0  0  0  0  0  0  0
   -2.9135  -16.7716    2.1283 C   0  0  0  0  0  0  0  0  0  0  0  0
   -1.3474  -18.5046    1.7034 C   0  0  0  0  0  0  0  0  0  0  0  0
   -0.9614  -19.8428    1.7679 C   0  0  0  0  0  0  0  0  0  0  0  0
   -1.2981  -15.1276    0.5364 N   0  0  0  0  0  0  0  0  0  0  0  0
   -5.2570  -15.7340    3.0636 O   0  0  0  0  0  0  0  0  0  0  0  0
   -5.1391  -13.7172    2.0669 O   0  0  0  0  0  0  0  0  0  0  0  0
  1  2  2  0
  1  6  1  0
 14  1  1  0
  2  3  1  0
  3  4  2  0
  5  4  1  0
  6  5  2  0
  8  7  1  0
  7 16  2  0
  7 17  1  0
  8  9  2  0
 12  8  1  0
 15  9  1  0
 11 10  1  0
 10 15  2  0
 11 12  2  0
 13 11  1  0
 13 14  3  0
M  END
$$$$
