
     RDKit          3D

 17 18  0  0  0  0  0  0  0  0999 V2000
   -0.9600  -21.2979    1.9190 C   0  0  0  0  0  0  0  0  0  0  0  0
   -1.0470  -22.4183    2.7953 C   0  0  0  0  0  0  0  0  0  0  0  0
   -0.6514  -23.5885    2.3822 C   0  0  0  0  0  0  0  0  0  0  0  0
   -0.1533  -23.7784    1.1122 C   0  0  0  0  0  0  0  0  0  0  0  0
   -0.0441  -22.7317    0.1730 C   0  0  0  0  0  0  0  0  0  0  0  0
   -0.4996  -21.4322    0.7364 C   0  0  0  0  0  0  0  0  0  0  0  0
   -3.6299  -15.1638    5.2026 C   0  0  0  0  0  0  0  0  0  0  0  0
   -4.0057  -16.1317    4.1984 C   0  0  0  0  0  0  0  0  0  0  0  0
   -5.2236  -16.1151    3.6686 C   0  0  0  0  0  0  0  0  0  0  0  0
   -4.6728  -17.9497    2.3492 C   0  0  0  0  0  0  0  0  0  0  0  0
   -3.3414  -17.9821    2.9196 C   0  0  0  0  0  0  0  0  0  0  0  0
   -3.0090  -17.0606    3.8477 C   0  0  0  0  0  0  0  0  0  0  0  0
   -2.5912  -19.0482    2.6182 C   0  0  0  0  0  0  0  0  0  0  0  0
   -1.8025  -20.1483    2.2842 C   0  0  0  0  0  0  0  0  0  0  0  0
   -5.5653  -17.0693    2.7023 N   0  0  0  0  0  0  0  0  0  0  0  0
   -4.3902  -14.1763    5.5000 O   0  0  0  0  0  0  0  0  0  0  0  0
   -2.4185  -15.1601    5.9681 O   0  0  0  0  0  0  0  0  0  0  0  0
  1  2  2  0
  1  6  1  0
 14  1  1  0
  2  3  1  0
  3  4  2  0
  5  4  1  0
  6  5  2  0
  8  7  1  0
  7 16  2  0
  7 17  1  0
  8  9  2  0
 12  8  1  0
 15  9  1  0
 11 10  1  0
 10 15  2  0
 11 12  2  0
 13 11  1  0
 13 14  3  0
M  END
$$$$
