
     RDKit          3D

 17 18  0  0  0  0  0  0  0  0999 V2000
   -0.1536  -21.1642    2.1636 C   0  0  0  0  0  0  0  0  0  0  0  0
   -0.7702  -22.3022    2.7597 C   0  0  0  0  0  0  0  0  0  0  0  0
   -0.4611  -23.4948    2.3371 C   0  0  0  0  0  0  0  0  0  0  0  0
    0.4462  -23.6905    1.3196 C   0  0  0  0  0  0  0  0  0  0  0  0
    1.0941  -22.6241    0.6618 C   0  0  0  0  0  0  0  0  0  0  0  0
    0.6958  -21.3044    1.2215 C   0  0  0  0  0  0  0  0  0  0  0  0
   -5.0716  -15.5748    1.7945 C   0  0  0  0  0  0  0  0  0  0  0  0
   -3.8023  -15.8918    2.4067 C   0  0  0  0  0  0  0  0  0  0  0  0
   -3.1189  -14.9605    3.0623 C   0  0  0  0  0  0  0  0  0  0  0  0
   -1.4460  -16.5110    3.5177 C   0  0  0  0  0  0  0  0  0  0  0  0
   -2.1786  -17.5370    2.8038 C   0  0  0  0  0  0  0  0  0  0  0  0
   -3.3678  -17.2207    2.2500 C   0  0  0  0  0  0  0  0  0  0  0  0
   -1.5302  -18.6865    2.5837 C   0  0  0  0  0  0  0  0  0  0  0  0
   -0.8522  -19.8872    2.3776 C   0  0  0  0  0  0  0  0  0  0  0  0
   -1.8872  -15.2917    3.6403 N   0  0  0  0  0  0  0  0  0  0  0  0
   -5.9231  -16.4873    1.5051 O   0  0  0  0  0  0  0  0  0  0  0  0
   -5.5391  -14.2687    1.4350 O   0  0  0  0  0  0  0  0  0  0  0  0
  1  2  2  0
  1  6  1  0
 14  1  1  0
  2  3  1  0
  3  4  2  0
  5  4  1  0
  6  5  2  0
  8  7  1  0
  7 16  2  0
  7 17  1  0
  8  9  2  0
 12  8  1  0
 15  9  1  0
 11 10  1  0
 10 15  2  0
 11 12  2  0
 13 11  1  0
 13 14  3  0
M  END
$$$$
