
     RDKit          3D

 17 18  0  0  0  0  0  0  0  0999 V2000
  -11.9988  -33.7289   -0.9273 C   0  0  0  0  0  0  0  0  0  0  0  0
  -10.9630  -34.5543   -0.4017 C   0  0  0  0  0  0  0  0  0  0  0  0
   -9.7184  -34.2507   -0.6373 C   0  0  0  0  0  0  0  0  0  0  0  0
   -9.3708  -33.1508   -1.3900 C   0  0  0  0  0  0  0  0  0  0  0  0
  -10.3277  -32.2864   -1.9617 C   0  0  0  0  0  0  0  0  0  0  0  0
  -11.7172  -32.6982   -1.6254 C   0  0  0  0  0  0  0  0  0  0  0  0
  -19.0137  -35.6323    0.6228 C   0  0  0  0  0  0  0  0  0  0  0  0
  -17.9415  -36.0203   -0.2640 C   0  0  0  0  0  0  0  0  0  0  0  0
  -18.0502  -37.1094   -1.0167 C   0  0  0  0  0  0  0  0  0  0  0  0
  -15.9288  -36.7177   -1.8865 C   0  0  0  0  0  0  0  0  0  0  0  0
  -15.7946  -35.5285   -1.0699 C   0  0  0  0  0  0  0  0  0  0  0  0
  -16.8139  -35.1791   -0.2576 C   0  0  0  0  0  0  0  0  0  0  0  0
  -14.5836  -34.9603   -1.0415 C   0  0  0  0  0  0  0  0  0  0  0  0
  -13.3284  -34.3553   -0.9932 C   0  0  0  0  0  0  0  0  0  0  0  0
  -16.9933  -37.4679   -1.8624 N   0  0  0  0  0  0  0  0  0  0  0  0
  -18.8582  -34.7120    1.5006 O   0  0  0  0  0  0  0  0  0  0  0  0
  -20.3334  -36.1898    0.6555 O   0  0  0  0  0  0  0  0  0  0  0  0
  1  2  2  0
  1  6  1  0
 14  1  1  0
  2  3  1  0
  3  4  2  0
  5  4  1  0
  6  5  2  0
  8  7  1  0
  7 16  2  0
  7 17  1  0
  8  9  2  0
 12  8  1  0
 15  9  1  0
 11 10  1  0
 10 15  2  0
 11 12  2  0
 13 11  1  0
 13 14  3  0
M  END
$$$$
