
     RDKit          3D

 17 18  0  0  0  0  0  0  0  0999 V2000
   -3.9226  -17.0488    1.3412 C   0  0  0  0  0  0  0  0  0  0  0  0
   -4.1050  -16.3839    0.0941 C   0  0  0  0  0  0  0  0  0  0  0  0
   -4.9175  -16.8889   -0.7898 C   0  0  0  0  0  0  0  0  0  0  0  0
   -5.6065  -18.0583   -0.5561 C   0  0  0  0  0  0  0  0  0  0  0  0
   -5.4775  -18.7915    0.6420 C   0  0  0  0  0  0  0  0  0  0  0  0
   -4.5469  -18.1321    1.5974 C   0  0  0  0  0  0  0  0  0  0  0  0
    2.8298  -14.4475    3.1294 C   0  0  0  0  0  0  0  0  0  0  0  0
    1.7492  -15.2100    3.7102 C   0  0  0  0  0  0  0  0  0  0  0  0
    1.8949  -15.7898    4.8963 C   0  0  0  0  0  0  0  0  0  0  0  0
   -0.2701  -16.6276    4.7508 C   0  0  0  0  0  0  0  0  0  0  0  0
   -0.4432  -16.0030    3.4551 C   0  0  0  0  0  0  0  0  0  0  0  0
    0.5759  -15.2858    2.9375 C   0  0  0  0  0  0  0  0  0  0  0  0
   -1.5450  -16.3402    2.7749 C   0  0  0  0  0  0  0  0  0  0  0  0
   -2.7057  -16.6763    2.0794 C   0  0  0  0  0  0  0  0  0  0  0  0
    0.8346  -16.5299    5.4338 N   0  0  0  0  0  0  0  0  0  0  0  0
    2.6186  -13.3363    2.5274 O   0  0  0  0  0  0  0  0  0  0  0  0
    4.2183  -14.8016    3.1343 O   0  0  0  0  0  0  0  0  0  0  0  0
  1  2  2  0
  1  6  1  0
 14  1  1  0
  2  3  1  0
  3  4  2  0
  5  4  1  0
  6  5  2  0
  8  7  1  0
  7 16  2  0
  7 17  1  0
  8  9  2  0
 12  8  1  0
 15  9  1  0
 11 10  1  0
 10 15  2  0
 11 12  2  0
 13 11  1  0
 13 14  3  0
M  END
$$$$
