
     RDKit          3D

 17 18  0  0  0  0  0  0  0  0999 V2000
  -12.9011  -34.7090   -0.6969 C   0  0  0  0  0  0  0  0  0  0  0  0
  -12.7107  -36.0954   -0.9659 C   0  0  0  0  0  0  0  0  0  0  0  0
  -11.5030  -36.5816   -1.0058 C   0  0  0  0  0  0  0  0  0  0  0  0
  -10.3956  -35.7890   -0.8002 C   0  0  0  0  0  0  0  0  0  0  0  0
  -10.4871  -34.4052   -0.5424 C   0  0  0  0  0  0  0  0  0  0  0  0
  -11.9004  -33.9427   -0.4962 C   0  0  0  0  0  0  0  0  0  0  0  0
  -18.5218  -32.0500   -4.7663 C   0  0  0  0  0  0  0  0  0  0  0  0
  -18.1825  -32.2762   -3.3806 C   0  0  0  0  0  0  0  0  0  0  0  0
  -18.9722  -31.8276   -2.4114 C   0  0  0  0  0  0  0  0  0  0  0  0
  -17.5156  -32.7014   -0.8224 C   0  0  0  0  0  0  0  0  0  0  0  0
  -16.6429  -33.1947   -1.8685 C   0  0  0  0  0  0  0  0  0  0  0  0
  -16.9863  -32.9817   -3.1560 C   0  0  0  0  0  0  0  0  0  0  0  0
  -15.4540  -33.6676   -1.4771 C   0  0  0  0  0  0  0  0  0  0  0  0
  -14.2106  -34.1668   -1.0916 C   0  0  0  0  0  0  0  0  0  0  0  0
  -18.6166  -32.0535   -1.0760 N   0  0  0  0  0  0  0  0  0  0  0  0
  -19.4969  -31.2899   -5.1026 O   0  0  0  0  0  0  0  0  0  0  0  0
  -17.8607  -32.6135   -5.9061 O   0  0  0  0  0  0  0  0  0  0  0  0
  1  2  2  0
  1  6  1  0
 14  1  1  0
  2  3  1  0
  3  4  2  0
  5  4  1  0
  6  5  2  0
  8  7  1  0
  7 16  2  0
  7 17  1  0
  8  9  2  0
 12  8  1  0
 15  9  1  0
 11 10  1  0
 10 15  2  0
 11 12  2  0
 13 11  1  0
 13 14  3  0
M  END
$$$$
