
     RDKit          3D

 17 18  0  0  0  0  0  0  0  0999 V2000
   -0.3418  -21.4978    2.5626 C   0  0  0  0  0  0  0  0  0  0  0  0
   -0.4750  -21.8878    1.1985 C   0  0  0  0  0  0  0  0  0  0  0  0
    0.4211  -22.6670    0.6633 C   0  0  0  0  0  0  0  0  0  0  0  0
    1.5050  -23.1240    1.3797 C   0  0  0  0  0  0  0  0  0  0  0  0
    1.7260  -22.7784    2.7293 C   0  0  0  0  0  0  0  0  0  0  0  0
    0.6458  -21.9043    3.2612 C   0  0  0  0  0  0  0  0  0  0  0  0
   -5.7205  -16.3769    3.2202 C   0  0  0  0  0  0  0  0  0  0  0  0
   -4.3507  -16.6013    3.6200 C   0  0  0  0  0  0  0  0  0  0  0  0
   -3.6515  -15.6339    4.2026 C   0  0  0  0  0  0  0  0  0  0  0  0
   -1.8094  -17.0478    4.3357 C   0  0  0  0  0  0  0  0  0  0  0  0
   -2.5585  -18.1120    3.6990 C   0  0  0  0  0  0  0  0  0  0  0  0
   -3.8403  -17.8831    3.3448 C   0  0  0  0  0  0  0  0  0  0  0  0
   -1.8615  -19.1950    3.3362 C   0  0  0  0  0  0  0  0  0  0  0  0
   -1.1163  -20.3098    2.9546 C   0  0  0  0  0  0  0  0  0  0  0  0
   -2.3229  -15.8747    4.5736 N   0  0  0  0  0  0  0  0  0  0  0  0
   -6.3826  -15.3617    3.6356 O   0  0  0  0  0  0  0  0  0  0  0  0
   -6.5004  -17.2105    2.3539 O   0  0  0  0  0  0  0  0  0  0  0  0
  1  2  2  0
  1  6  1  0
 14  1  1  0
  2  3  1  0
  3  4  2  0
  5  4  1  0
  6  5  2  0
  8  7  1  0
  7 16  2  0
  7 17  1  0
  8  9  2  0
 12  8  1  0
 15  9  1  0
 11 10  1  0
 10 15  2  0
 11 12  2  0
 13 11  1  0
 13 14  3  0
M  END
$$$$
