
     RDKit          3D

 17 18  0  0  0  0  0  0  0  0999 V2000
   -9.4702  -32.1580  -16.3870 C   0  0  0  0  0  0  0  0  0  0  0  0
   -9.0260  -31.5681  -17.6057 C   0  0  0  0  0  0  0  0  0  0  0  0
   -7.8112  -31.1057  -17.6897 C   0  0  0  0  0  0  0  0  0  0  0  0
   -6.9382  -31.1648  -16.6261 C   0  0  0  0  0  0  0  0  0  0  0  0
   -7.2950  -31.7172  -15.3782 C   0  0  0  0  0  0  0  0  0  0  0  0
   -8.6895  -32.2358  -15.3804 C   0  0  0  0  0  0  0  0  0  0  0  0
  -16.7979  -31.0217  -17.0609 C   0  0  0  0  0  0  0  0  0  0  0  0
  -15.8725  -31.8148  -16.2856 C   0  0  0  0  0  0  0  0  0  0  0  0
  -16.3038  -32.5492  -15.2662 C   0  0  0  0  0  0  0  0  0  0  0  0
  -14.1271  -33.2622  -14.8612 C   0  0  0  0  0  0  0  0  0  0  0  0
  -13.6413  -32.4644  -15.9687 C   0  0  0  0  0  0  0  0  0  0  0  0
  -14.5259  -31.7407  -16.6860 C   0  0  0  0  0  0  0  0  0  0  0  0
  -12.3128  -32.3559  -16.0855 C   0  0  0  0  0  0  0  0  0  0  0  0
  -10.9301  -32.2504  -16.2295 C   0  0  0  0  0  0  0  0  0  0  0  0
  -15.3850  -33.3031  -14.5258 N   0  0  0  0  0  0  0  0  0  0  0  0
  -16.3901  -30.1870  -17.9433 O   0  0  0  0  0  0  0  0  0  0  0  0
  -18.2272  -31.0443  -16.9612 O   0  0  0  0  0  0  0  0  0  0  0  0
  1  2  2  0
  1  6  1  0
 14  1  1  0
  2  3  1  0
  3  4  2  0
  5  4  1  0
  6  5  2  0
  8  7  1  0
  7 16  2  0
  7 17  1  0
  8  9  2  0
 12  8  1  0
 15  9  1  0
 11 10  1  0
 10 15  2  0
 11 12  2  0
 13 11  1  0
 13 14  3  0
M  END
$$$$
