
     RDKit          3D

 17 18  0  0  0  0  0  0  0  0999 V2000
   -3.2604  -20.4802    4.4599 C   0  0  0  0  0  0  0  0  0  0  0  0
   -2.0701  -21.2296    4.6882 C   0  0  0  0  0  0  0  0  0  0  0  0
   -2.0297  -22.0877    5.6673 C   0  0  0  0  0  0  0  0  0  0  0  0
   -3.1090  -22.2898    6.4987 C   0  0  0  0  0  0  0  0  0  0  0  0
   -4.3217  -21.5835    6.3572 C   0  0  0  0  0  0  0  0  0  0  0  0
   -4.2835  -20.6425    5.2054 C   0  0  0  0  0  0  0  0  0  0  0  0
   -4.4274  -14.0545    0.8484 C   0  0  0  0  0  0  0  0  0  0  0  0
   -3.4001  -15.0532    1.0322 C   0  0  0  0  0  0  0  0  0  0  0  0
   -2.2826  -15.0105    0.3156 C   0  0  0  0  0  0  0  0  0  0  0  0
   -1.5228  -16.9289    1.3891 C   0  0  0  0  0  0  0  0  0  0  0  0
   -2.7374  -16.9902    2.1765 C   0  0  0  0  0  0  0  0  0  0  0  0
   -3.6780  -16.0397    1.9960 C   0  0  0  0  0  0  0  0  0  0  0  0
   -2.9217  -18.1007    2.8998 C   0  0  0  0  0  0  0  0  0  0  0  0
   -3.0906  -19.2628    3.6513 C   0  0  0  0  0  0  0  0  0  0  0  0
   -1.3056  -15.9951    0.5075 N   0  0  0  0  0  0  0  0  0  0  0  0
   -5.3721  -13.8995    1.7000 O   0  0  0  0  0  0  0  0  0  0  0  0
   -4.5403  -13.1441   -0.2525 O   0  0  0  0  0  0  0  0  0  0  0  0
  1  2  2  0
  1  6  1  0
 14  1  1  0
  2  3  1  0
  3  4  2  0
  5  4  1  0
  6  5  2  0
  8  7  1  0
  7 16  2  0
  7 17  1  0
  8  9  2  0
 12  8  1  0
 15  9  1  0
 11 10  1  0
 10 15  2  0
 11 12  2  0
 13 11  1  0
 13 14  3  0
M  END
$$$$
