
     RDKit          3D

113120  0  0  0  0  0  0  0  0999 V2000
  -11.9789  -16.6522   33.4933 N   0  0  0  0  0  0  0  0  0  0  0  0
  -12.1287  -15.3222   33.7495 C   0  0  2  0  0  0  0  0  0  0  0  0
  -10.9476  -14.4704   33.4655 C   0  0  0  0  0  0  0  0  0  0  0  0
   -9.8517  -15.0468   33.9010 O   0  0  0  0  0  0  0  0  0  0  0  0
  -10.8479  -13.2338   32.8405 N   0  0  0  0  0  0  0  0  0  0  0  0
  -10.9146  -11.8691   33.2595 C   0  0  2  0  0  0  0  0  0  0  0  0
   -9.7239  -11.1331   32.6961 C   0  0  0  0  0  0  0  0  0  0  0  0
   -9.6906  -11.2069   31.4096 O   0  0  0  0  0  0  0  0  0  0  0  0
  -11.1896  -11.5427   34.6627 C   0  0  0  0  0  0  0  0  0  0  0  0
  -11.2572  -10.0830   35.0159 C   0  0  0  0  0  0  0  0  0  0  0  0
  -12.6227   -9.7168   35.5851 C   0  0  0  0  0  0  0  0  0  0  0  0
  -12.9108   -8.3232   35.3488 N   0  0  0  0  0  0  0  0  0  0  0  0
  -13.9101   -7.6381   36.0734 C   0  0  0  0  0  0  0  0  0  0  0  0
  -14.0859   -8.0000   37.4392 N   0  0  0  0  0  0  0  0  0  0  0  0
  -14.6092   -6.7355   35.4964 N   0  0  0  0  0  0  0  0  0  0  0  0
   -8.7327  -10.4376   33.3407 N   0  0  0  0  0  0  0  0  0  0  0  0
   -7.8653  -10.8085   34.4369 C   0  0  2  0  0  0  0  0  0  0  0  0
   -6.6131  -10.0089   34.4628 C   0  0  0  0  0  0  0  0  0  0  0  0
   -5.6114  -10.5625   33.8586 O   0  0  0  0  0  0  0  0  0  0  0  0
   -7.4790  -12.2982   34.3421 C   0  0  0  0  0  0  0  0  0  0  0  0
   -7.5514  -12.7444   32.6171 S   0  0  0  0  0  0  0  0  0  0  0  0
   -6.4101   -8.7465   35.0613 N   0  0  0  0  0  0  0  0  0  0  0  0
   -7.0917   -7.5132   34.8285 C   0  0  2  0  0  0  0  0  0  0  0  0
   -6.2712   -6.4303   35.4577 C   0  0  0  0  0  0  0  0  0  0  0  0
   -6.5444   -6.0294   36.6279 O   0  0  0  0  0  0  0  0  0  0  0  0
   -8.4857   -7.4306   35.2995 C   0  0  0  0  0  0  0  0  0  0  0  0
   -8.7209   -6.5891   36.4790 C   0  0  0  0  0  0  0  0  0  0  0  0
   -9.8442   -6.6324   37.2371 C   0  0  0  0  0  0  0  0  0  0  0  0
   -7.7111   -5.7082   36.8636 C   0  0  0  0  0  0  0  0  0  0  0  0
   -9.9865   -5.8158   38.3771 C   0  0  0  0  0  0  0  0  0  0  0  0
   -7.8326   -4.8977   37.9802 C   0  0  0  0  0  0  0  0  0  0  0  0
   -8.9874   -4.9520   38.7492 C   0  0  0  0  0  0  0  0  0  0  0  0
   -9.1230   -4.1427   39.8758 O   0  0  0  0  0  0  0  0  0  0  0  0
   -5.1857   -5.8374   34.7794 N   0  0  0  0  0  0  0  0  0  0  0  0
   -5.0911   -5.5476   33.3716 C   0  0  2  0  0  0  0  0  0  0  0  0
   -3.6541   -5.3455   33.0051 C   0  0  0  0  0  0  0  0  0  0  0  0
   -2.9341   -6.2803   33.5118 O   0  0  0  0  0  0  0  0  0  0  0  0
   -6.0258   -4.5108   32.9304 C   0  0  0  0  0  0  0  0  0  0  0  0
   -5.7383   -3.7647   31.6722 C   0  0  0  0  0  0  0  0  0  0  0  0
   -4.6284   -4.3009   30.8173 C   0  0  0  0  0  0  0  0  0  0  0  0
   -4.0920   -3.1748   29.9367 C   0  0  0  0  0  0  0  0  0  0  0  0
   -5.1670   -2.5391   29.2165 N   0  0  0  0  0  4  0  0  0  0  0  0
   -3.0412   -4.3674   32.2558 N   0  0  0  0  0  0  0  0  0  0  0  0
   -3.2300   -4.0156   30.8633 C   0  0  2  0  0  0  0  0  0  0  0  0
   -2.6872   -5.0108   29.9073 C   0  0  0  0  0  0  0  0  0  0  0  0
   -3.2448   -4.9852   28.7388 O   0  0  0  0  0  0  0  0  0  0  0  0
   -2.5638   -2.6797   30.5495 C   0  0  0  0  0  0  0  0  0  0  0  0
   -1.8184   -2.2654   31.6677 O   0  0  0  0  0  0  0  0  0  0  0  0
   -1.6838   -5.9391   30.1131 N   0  0  0  0  0  0  0  0  0  0  0  0
   -0.2816   -5.7465   30.4374 C   0  0  2  0  0  0  0  0  0  0  0  0
    0.6388   -6.1875   29.3727 C   0  0  0  0  0  0  0  0  0  0  0  0
    0.9653   -5.2205   28.5574 O   0  0  0  0  0  0  0  0  0  0  0  0
    0.0516   -6.3390   31.7956 C   0  0  0  0  0  0  0  0  0  0  0  0
    1.5391   -6.4816   31.9278 C   0  0  0  0  0  0  0  0  0  0  0  0
    2.3070   -6.0221   30.7137 C   0  0  0  0  0  0  0  0  0  0  0  0
    1.2915   -5.2954   29.8217 C   0  0  0  0  0  0  0  0  0  0  0  0
    2.0236   -4.3932   28.9346 N   0  0  0  0  0  4  0  0  0  0  0  0
    1.1894   -7.4390   29.1191 N   0  0  0  0  0  0  0  0  0  0  0  0
    0.5246   -8.7375   29.0353 C   0  0  2  0  0  0  0  0  0  0  0  0
    1.1374   -9.7598   29.9312 C   0  0  0  0  0  0  0  0  0  0  0  0
    1.4787   -9.2672   31.0783 O   0  0  0  0  0  0  0  0  0  0  0  0
    0.9033   -9.0168   27.5722 C   0  0  0  0  0  0  0  0  0  0  0  0
    2.3941   -8.7566   27.6125 C   0  0  0  0  0  0  0  0  0  0  0  0
    2.5871   -7.8208   28.8125 C   0  0  0  0  0  0  0  0  0  0  0  0
    1.3966  -11.1040   29.7506 N   0  0  0  0  0  0  0  0  0  0  0  0
    0.5887  -12.2581   29.4930 C   0  0  2  0  0  0  0  0  0  0  0  0
   -0.8437  -12.1428   29.3805 C   0  0  0  0  0  0  0  0  0  0  0  0
   -1.2695  -11.0512   28.8278 O   0  0  0  0  0  0  0  0  0  0  0  0
    1.0564  -13.1988   30.6178 C   0  0  0  0  0  0  0  0  0  0  0  0
    2.5005  -12.8797   30.7964 C   0  0  0  0  0  0  0  0  0  0  0  0
    2.7359  -11.7707   29.7897 C   0  0  0  0  0  0  0  0  0  0  0  0
   -1.8774  -13.0172   29.7695 N   0  0  0  0  0  0  0  0  0  0  0  0
   -2.2606  -14.3138   29.3163 C   0  0  2  0  0  0  0  0  0  0  0  0
   -2.4026  -15.2329   30.4549 C   0  0  0  0  0  0  0  0  0  0  0  0
   -1.3334  -15.2847   31.1823 O   0  0  0  0  0  0  0  0  0  0  0  0
   -1.3637  -14.9413   28.2836 C   0  0  2  0  0  0  0  0  0  0  0  0
   -0.6366  -16.1667   28.7927 C   0  0  0  0  0  0  0  0  0  0  0  0
   -0.2519  -13.9136   28.0097 C   0  0  0  0  0  0  0  0  0  0  0  0
    0.4672  -15.8031   29.7587 C   0  0  0  0  0  0  0  0  0  0  0  0
   -3.4540  -16.0310   30.8677 N   0  0  0  0  0  0  0  0  0  0  0  0
   -4.8157  -15.7461   31.2418 C   0  0  2  0  0  0  0  0  0  0  0  0
   -5.7639  -15.5066   30.1441 C   0  0  0  0  0  0  0  0  0  0  0  0
   -5.7604  -14.2945   29.6899 O   0  0  0  0  0  0  0  0  0  0  0  0
   -4.8677  -14.5988   32.2737 C   0  0  0  0  0  0  0  0  0  0  0  0
   -5.7318  -13.1560   31.6926 S   0  0  0  0  0  0  0  0  0  0  0  0
   -6.6706  -16.3603   29.5100 N   0  0  0  0  0  0  0  0  0  0  0  0
   -6.4879  -17.6759   28.9410 C   0  0  2  0  0  0  0  0  0  0  0  0
   -7.6558  -18.5646   29.0701 C   0  0  0  0  0  0  0  0  0  0  0  0
   -8.2778  -18.7801   27.9387 O   0  0  0  0  0  0  0  0  0  0  0  0
   -5.1635  -18.2859   29.2601 C   0  0  0  0  0  0  0  0  0  0  0  0
   -4.0985  -17.2904   29.0433 C   0  0  0  0  0  0  0  0  0  0  0  0
   -4.1705  -16.1988   28.2192 C   0  0  0  0  0  0  0  0  0  0  0  0
   -2.9131  -17.4694   29.7421 C   0  0  0  0  0  0  0  0  0  0  0  0
   -3.0867  -15.3272   28.1099 C   0  0  0  0  0  0  0  0  0  0  0  0
   -1.8332  -16.6294   29.6544 C   0  0  0  0  0  0  0  0  0  0  0  0
   -1.9234  -15.5345   28.8194 C   0  0  0  0  0  0  0  0  0  0  0  0
   -8.2319  -19.2266   30.1661 N   0  0  0  0  0  0  0  0  0  0  0  0
   -8.7528  -18.7030   31.3975 C   0  0  2  0  0  0  0  0  0  0  0  0
   -8.8446  -17.2835   31.6040 C   0  0  0  0  0  0  0  0  0  0  0  0
   -7.8930  -16.7694   32.3056 O   0  0  0  0  0  0  0  0  0  0  0  0
   -7.8498  -19.4384   32.3814 C   0  0  0  0  0  0  0  0  0  0  0  0
   -8.0657  -20.8568   31.8172 C   0  0  0  0  0  0  0  0  0  0  0  0
   -8.5281  -20.6746   30.3940 C   0  0  0  0  0  0  0  0  0  0  0  0
   -9.8831  -16.4709   31.0974 N   0  0  0  0  0  0  0  0  0  0  0  0
  -11.2791  -16.7342   31.0456 C   0  0  2  0  0  0  0  0  0  0  0  0
  -11.8818  -17.3395   32.2554 C   0  0  0  0  0  0  0  0  0  0  0  0
  -12.3223  -18.5281   32.1441 O   0  0  0  0  0  0  0  0  0  0  0  0
  -11.6767  -17.5312   29.7994 C   0  0  0  0  0  0  0  0  0  0  0  0
  -12.3695  -18.7868   30.1790 C   0  0  0  0  0  0  0  0  0  0  0  0
  -11.6497  -19.8481   30.7074 O   0  0  0  0  0  0  0  0  0  0  0  0
  -13.6078  -18.9347   30.0399 O   0  0  0  0  0  0  0  0  0  0  0  0
  -12.0438  -16.2493   34.7678 O   0  0  0  0  0  0  0  0  0  0  0  0
  -14.2876   -6.2812   34.6329 H   0  0  0  0  0  0  0  0  0  0  0  0
  1  2  1  0
  1106  1  0
  1112  1  0
  2  3  1  0
  2112  1  1
  3  4  2  0
  3  5  1  0
  5  6  1  0
  6  7  1  0
  6  9  1  1
  7  8  2  0
  7 16  1  0
  9 10  1  0
 10 11  1  0
 11 12  1  0
 12 13  1  0
 13 14  1  0
 13 15  2  0
 17 16  1  6
 17 18  1  0
 17 20  1  0
 18 19  2  0
 18 22  1  0
 20 21  1  0
 21 85  1  0
 22 23  1  0
 23 24  1  0
 23 26  1  1
 24 25  2  0
 24 34  1  0
 26 27  1  0
 27 28  2  0
 27 29  1  0
 28 30  1  0
 29 31  2  0
 30 32  2  0
 31 32  1  0
 32 33  1  0
 34 35  1  0
 35 36  1  0
 35 38  1  1
 36 37  2  0
 36 43  1  0
 38 39  1  0
 39 40  1  0
 40 41  1  0
 41 42  1  0
 43 44  1  0
 44 45  1  0
 44 47  1  1
 45 46  2  0
 45 49  1  0
 47 48  1  0
 49 50  1  0
 50 51  1  0
 50 53  1  1
 51 52  2  0
 51 58  1  0
 53 54  1  0
 54 55  1  0
 55 56  1  0
 56 57  1  0
 58 59  1  0
 58 64  1  0
 59 60  1  0
 59 62  1  6
 60 61  2  0
 60 65  1  0
 62 63  1  0
 63 64  1  0
 65 66  1  0
 65 71  1  0
 66 67  1  0
 66 69  1  1
 67 68  2  0
 67 72  1  0
 69 70  1  0
 70 71  1  0
 73 72  1  1
 73 74  1  0
 73 76  1  0
 74 75  2  0
 74 80  1  0
 76 77  1  0
 76 78  1  1
 77 79  1  0
 81 80  1  6
 81 82  1  0
 81 84  1  0
 82 83  2  0
 82 86  1  0
 84 85  1  0
 86 87  1  0
 87 88  1  0
 87 90  1  1
 88 89  2  0
 88 97  1  0
 90 91  1  0
 91 92  2  0
 91 93  1  0
 92 94  1  0
 93 95  2  0
 94 96  2  0
 95 96  1  0
 97 98  1  0
 97103  1  0
 98 99  1  0
 98101  1  1
 99100  2  0
 99104  1  0
101102  1  0
102103  1  0
104105  1  0
105106  1  0
105108  1  6
106107  2  0
108109  1  0
109110  1  0
109111  2  0
 15113  1  0
M  CHG  2  42   1  57   1
M  END
$$$$
