
     RDKit          3D

113120  0  0  0  0  0  0  0  0999 V2000
    0.8662   -5.7726   34.7692 N   0  0  0  0  0  0  0  0  0  0  0  0
   -0.4200   -5.3928   35.0108 C   0  0  2  0  0  0  0  0  0  0  0  0
   -1.4713   -6.3267   34.5376 C   0  0  0  0  0  0  0  0  0  0  0  0
   -1.1892   -6.7609   33.3314 O   0  0  0  0  0  0  0  0  0  0  0  0
   -2.6312   -6.7778   35.1548 N   0  0  0  0  0  0  0  0  0  0  0  0
   -3.9853   -6.3284   35.2379 C   0  0  2  0  0  0  0  0  0  0  0  0
   -4.8978   -7.4858   34.9143 C   0  0  0  0  0  0  0  0  0  0  0  0
   -4.7035   -8.4767   35.7155 O   0  0  0  0  0  0  0  0  0  0  0  0
   -4.3853   -5.0740   34.5919 C   0  0  0  0  0  0  0  0  0  0  0  0
   -4.1237   -3.8068   35.3572 C   0  0  0  0  0  0  0  0  0  0  0  0
   -4.1821   -4.0493   36.8606 C   0  0  0  0  0  0  0  0  0  0  0  0
   -4.1152   -2.7989   37.5767 N   0  0  0  0  0  0  0  0  0  0  0  0
   -3.1556   -2.5718   38.5868 C   0  0  0  0  0  0  0  0  0  0  0  0
   -3.0399   -3.5583   39.6070 N   0  0  0  0  0  0  0  0  0  0  0  0
   -2.4366   -1.5142   38.5559 N   0  0  0  0  0  0  0  0  0  0  0  0
   -5.8504   -7.6091   33.9349 N   0  0  0  0  0  0  0  0  0  0  0  0
   -5.7860   -7.3839   32.5078 C   0  0  2  0  0  0  0  0  0  0  0  0
   -6.8329   -8.1359   31.7687 C   0  0  0  0  0  0  0  0  0  0  0  0
   -6.4480   -9.2856   31.3161 O   0  0  0  0  0  0  0  0  0  0  0  0
   -4.4113   -7.8093   31.9537 C   0  0  0  0  0  0  0  0  0  0  0  0
   -3.7882   -9.0841   33.0338 S   0  0  0  0  0  0  0  0  0  0  0  0
   -8.1634   -7.7366   31.5166 N   0  0  0  0  0  0  0  0  0  0  0  0
   -9.1928   -7.3794   32.4400 C   0  0  2  0  0  0  0  0  0  0  0  0
  -10.4837   -7.3759   31.6815 C   0  0  0  0  0  0  0  0  0  0  0  0
  -10.9330   -6.2922   31.2036 O   0  0  0  0  0  0  0  0  0  0  0  0
   -9.0228   -6.1025   33.1561 C   0  0  0  0  0  0  0  0  0  0  0  0
   -7.6468   -5.6047   33.2723 C   0  0  0  0  0  0  0  0  0  0  0  0
   -6.7220   -5.6765   32.2833 C   0  0  0  0  0  0  0  0  0  0  0  0
   -7.2740   -4.9906   34.4670 C   0  0  0  0  0  0  0  0  0  0  0  0
   -5.4274   -5.1467   32.4558 C   0  0  0  0  0  0  0  0  0  0  0  0
   -6.0067   -4.4644   34.6554 C   0  0  0  0  0  0  0  0  0  0  0  0
   -5.0687   -4.5431   33.6347 C   0  0  0  0  0  0  0  0  0  0  0  0
   -3.7900   -4.0172   33.8102 O   0  0  0  0  0  0  0  0  0  0  0  0
  -11.2232   -8.5595   31.4767 N   0  0  0  0  0  0  0  0  0  0  0  0
  -11.3830   -9.6574   32.3954 C   0  0  2  0  0  0  0  0  0  0  0  0
  -11.8493  -10.8651   31.6444 C   0  0  0  0  0  0  0  0  0  0  0  0
  -11.1459  -11.0224   30.5817 O   0  0  0  0  0  0  0  0  0  0  0  0
  -12.1463   -9.3028   33.5933 C   0  0  0  0  0  0  0  0  0  0  0  0
  -11.4738   -9.3567   34.9227 C   0  0  0  0  0  0  0  0  0  0  0  0
  -10.5548   -8.2177   35.2522 C   0  0  0  0  0  0  0  0  0  0  0  0
  -11.3064   -7.2076   36.1159 C   0  0  0  0  0  0  0  0  0  0  0  0
  -10.4368   -6.1243   36.5013 N   0  0  0  0  0  4  0  0  0  0  0  0
  -12.8551  -11.7648   31.9142 N   0  0  0  0  0  0  0  0  0  0  0  0
  -13.0161  -12.6604   33.0414 C   0  0  2  0  0  0  0  0  0  0  0  0
  -12.0685  -13.8010   33.0501 C   0  0  0  0  0  0  0  0  0  0  0  0
  -11.8564  -14.3076   34.2228 O   0  0  0  0  0  0  0  0  0  0  0  0
  -14.4248  -13.2449   33.0688 C   0  0  0  0  0  0  0  0  0  0  0  0
  -14.7382  -13.7454   31.7925 O   0  0  0  0  0  0  0  0  0  0  0  0
  -11.4016  -14.3699   31.9813 N   0  0  0  0  0  0  0  0  0  0  0  0
  -11.9209  -15.0378   30.8011 C   0  0  2  0  0  0  0  0  0  0  0  0
  -11.5815  -16.4715   30.7340 C   0  0  0  0  0  0  0  0  0  0  0  0
  -12.5086  -17.2328   31.2510 O   0  0  0  0  0  0  0  0  0  0  0  0
  -11.5534  -14.2793   29.5376 C   0  0  0  0  0  0  0  0  0  0  0  0
  -12.7980  -13.7359   28.9006 C   0  0  0  0  0  0  0  0  0  0  0  0
  -14.0267  -13.8467   29.7683 C   0  0  0  0  0  0  0  0  0  0  0  0
  -13.5980  -14.6438   31.0077 C   0  0  0  0  0  0  0  0  0  0  0  0
  -14.8024  -15.1191   31.6860 N   0  0  0  0  0  4  0  0  0  0  0  0
  -10.4575  -17.1081   30.2194 N   0  0  0  0  0  0  0  0  0  0  0  0
   -9.0453  -16.8200   30.4596 C   0  0  2  0  0  0  0  0  0  0  0  0
   -8.2732  -16.6207   29.1996 C   0  0  0  0  0  0  0  0  0  0  0  0
   -8.9405  -15.9531   28.3143 O   0  0  0  0  0  0  0  0  0  0  0  0
   -8.7071  -18.1845   31.0806 C   0  0  0  0  0  0  0  0  0  0  0  0
   -9.2825  -19.1190   30.0378 C   0  0  0  0  0  0  0  0  0  0  0  0
  -10.3541  -18.2842   29.3252 C   0  0  0  0  0  0  0  0  0  0  0  0
   -7.0042  -17.0169   28.8264 N   0  0  0  0  0  0  0  0  0  0  0  0
   -5.6842  -16.7551   29.3163 C   0  0  2  0  0  0  0  0  0  0  0  0
   -5.4789  -15.8880   30.4494 C   0  0  0  0  0  0  0  0  0  0  0  0
   -6.3930  -15.9485   31.3655 O   0  0  0  0  0  0  0  0  0  0  0  0
   -4.9835  -16.2833   28.0298 C   0  0  0  0  0  0  0  0  0  0  0  0
   -5.6200  -17.0794   26.9433 C   0  0  0  0  0  0  0  0  0  0  0  0
   -6.6464  -17.9145   27.6836 C   0  0  0  0  0  0  0  0  0  0  0  0
   -4.4477  -14.9741   30.7425 N   0  0  0  0  0  0  0  0  0  0  0  0
   -3.0603  -15.1482   31.0218 C   0  0  2  0  0  0  0  0  0  0  0  0
   -2.2518  -14.2629   30.1708 C   0  0  0  0  0  0  0  0  0  0  0  0
   -2.5031  -14.4257   28.9118 O   0  0  0  0  0  0  0  0  0  0  0  0
   -2.5379  -16.5549   30.9084 C   0  0  2  0  0  0  0  0  0  0  0  0
   -2.3641  -17.0114   29.4764 C   0  0  0  0  0  0  0  0  0  0  0  0
   -3.6431  -17.4625   31.4758 C   0  0  0  0  0  0  0  0  0  0  0  0
   -3.2099  -16.2003   28.5224 C   0  0  0  0  0  0  0  0  0  0  0  0
   -1.2933  -13.3144   30.4784 N   0  0  0  0  0  0  0  0  0  0  0  0
   -1.3171  -12.1180   31.2804 C   0  0  2  0  0  0  0  0  0  0  0  0
   -1.2366  -12.2999   32.7370 C   0  0  0  0  0  0  0  0  0  0  0  0
   -2.3692  -12.5613   33.3063 O   0  0  0  0  0  0  0  0  0  0  0  0
   -2.5249  -11.2336   30.9025 C   0  0  0  0  0  0  0  0  0  0  0  0
   -3.6837  -11.0032   32.2330 S   0  0  0  0  0  0  0  0  0  0  0  0
   -0.1493  -12.2349   33.6127 N   0  0  0  0  0  0  0  0  0  0  0  0
    1.1474  -12.8698   33.5553 C   0  0  2  0  0  0  0  0  0  0  0  0
    2.2474  -12.0632   34.1120 C   0  0  0  0  0  0  0  0  0  0  0  0
    2.7038  -12.5157   35.2524 O   0  0  0  0  0  0  0  0  0  0  0  0
    1.4251  -13.5440   32.2529 C   0  0  0  0  0  0  0  0  0  0  0  0
    0.7197  -12.8338   31.1712 C   0  0  0  0  0  0  0  0  0  0  0  0
    1.2302  -12.5340   29.9362 C   0  0  0  0  0  0  0  0  0  0  0  0
   -0.5856  -12.4352   31.4219 C   0  0  0  0  0  0  0  0  0  0  0  0
    0.4496  -11.8597   28.9970 C   0  0  0  0  0  0  0  0  0  0  0  0
   -1.3753  -11.7722   30.5183 C   0  0  0  0  0  0  0  0  0  0  0  0
   -0.8446  -11.4786   29.2789 C   0  0  0  0  0  0  0  0  0  0  0  0
    2.9032  -10.9067   33.6604 N   0  0  0  0  0  0  0  0  0  0  0  0
    2.3814   -9.6058   33.3489 C   0  0  2  0  0  0  0  0  0  0  0  0
    1.0008   -9.2954   33.6015 C   0  0  0  0  0  0  0  0  0  0  0  0
    0.2272   -9.3621   32.5723 O   0  0  0  0  0  0  0  0  0  0  0  0
    2.8038   -9.5126   31.8870 C   0  0  0  0  0  0  0  0  0  0  0  0
    4.2851   -9.8882   32.0907 C   0  0  0  0  0  0  0  0  0  0  0  0
    4.3505  -10.6379   33.3969 C   0  0  0  0  0  0  0  0  0  0  0  0
    0.4841   -8.9365   34.8663 N   0  0  0  0  0  0  0  0  0  0  0  0
    1.0434   -8.0733   35.8477 C   0  0  2  0  0  0  0  0  0  0  0  0
    1.6382   -6.8102   35.3535 C   0  0  0  0  0  0  0  0  0  0  0  0
    2.8984   -6.6831   35.4749 O   0  0  0  0  0  0  0  0  0  0  0  0
    2.0285   -8.7986   36.7694 C   0  0  0  0  0  0  0  0  0  0  0  0
    2.8321   -7.8248   37.5482 C   0  0  0  0  0  0  0  0  0  0  0  0
    4.2081   -7.9723   37.6409 O   0  0  0  0  0  0  0  0  0  0  0  0
    2.3095   -6.8501   38.1410 O   0  0  0  0  0  0  0  0  0  0  0  0
    0.3599   -4.7479   34.0732 O   0  0  0  0  0  0  0  0  0  0  0  0
   -1.4195   -1.5634   38.4195 H   0  0  0  0  0  0  0  0  0  0  0  0
  1  2  1  0
  1106  1  0
  1112  1  0
  2  3  1  0
  2112  1  6
  3  4  2  0
  3  5  1  0
  5  6  1  0
  6  7  1  0
  6  9  1  6
  7  8  2  0
  7 16  1  0
  9 10  1  0
 10 11  1  0
 11 12  1  0
 12 13  1  0
 13 14  1  0
 13 15  2  0
 17 16  1  1
 17 18  1  0
 17 20  1  0
 18 19  2  0
 18 22  1  0
 20 21  1  0
 21 85  1  0
 22 23  1  0
 23 24  1  0
 23 26  1  6
 24 25  2  0
 24 34  1  0
 26 27  1  0
 27 28  2  0
 27 29  1  0
 28 30  1  0
 29 31  2  0
 30 32  2  0
 31 32  1  0
 32 33  1  0
 34 35  1  0
 35 36  1  0
 35 38  1  1
 36 37  2  0
 36 43  1  0
 38 39  1  0
 39 40  1  0
 40 41  1  0
 41 42  1  0
 43 44  1  0
 44 45  1  0
 44 47  1  6
 45 46  2  0
 45 49  1  0
 47 48  1  0
 49 50  1  0
 50 51  1  0
 50 53  1  6
 51 52  2  0
 51 58  1  0
 53 54  1  0
 54 55  1  0
 55 56  1  0
 56 57  1  0
 58 59  1  0
 58 64  1  0
 59 60  1  0
 59 62  1  6
 60 61  2  0
 60 65  1  0
 62 63  1  0
 63 64  1  0
 65 66  1  0
 65 71  1  0
 66 67  1  0
 66 69  1  6
 67 68  2  0
 67 72  1  0
 69 70  1  0
 70 71  1  0
 73 72  1  6
 73 74  1  0
 73 76  1  0
 74 75  2  0
 74 80  1  0
 76 77  1  0
 76 78  1  6
 77 79  1  0
 81 80  1  6
 81 82  1  0
 81 84  1  0
 82 83  2  0
 82 86  1  0
 84 85  1  0
 86 87  1  0
 87 88  1  0
 87 90  1  6
 88 89  2  0
 88 97  1  0
 90 91  1  0
 91 92  2  0
 91 93  1  0
 92 94  1  0
 93 95  2  0
 94 96  2  0
 95 96  1  0
 97 98  1  0
 97103  1  0
 98 99  1  0
 98101  1  6
 99100  2  0
 99104  1  0
101102  1  0
102103  1  0
104105  1  0
105106  1  0
105108  1  6
106107  2  0
108109  1  0
109110  1  0
109111  2  0
 15113  1  0
M  CHG  2  42   1  57   1
M  END
$$$$
