
     RDKit          3D

113120  0  0  0  0  0  0  0  0999 V2000
    2.0669   -7.2500   33.3854 N   0  0  0  0  0  0  0  0  0  0  0  0
    0.9547   -6.7073   33.9560 C   0  0  2  0  0  0  0  0  0  0  0  0
   -0.3207   -7.4188   33.6943 C   0  0  0  0  0  0  0  0  0  0  0  0
   -0.4013   -7.7650   32.4308 O   0  0  0  0  0  0  0  0  0  0  0  0
   -1.3675   -7.7506   34.5451 N   0  0  0  0  0  0  0  0  0  0  0  0
   -2.5693   -7.1130   34.9831 C   0  0  2  0  0  0  0  0  0  0  0  0
   -3.7156   -8.0804   34.8185 C   0  0  0  0  0  0  0  0  0  0  0  0
   -3.5147   -9.1659   35.4841 O   0  0  0  0  0  0  0  0  0  0  0  0
   -2.8866   -5.7532   34.5345 C   0  0  0  0  0  0  0  0  0  0  0  0
   -3.4336   -4.8107   35.5700 C   0  0  0  0  0  0  0  0  0  0  0  0
   -2.4909   -3.6351   35.7974 C   0  0  0  0  0  0  0  0  0  0  0  0
   -3.2375   -2.4082   35.9325 N   0  0  0  0  0  0  0  0  0  0  0  0
   -3.4099   -1.7776   37.1837 C   0  0  0  0  0  0  0  0  0  0  0  0
   -2.9446   -2.4768   38.3335 N   0  0  0  0  0  0  0  0  0  0  0  0
   -3.9641   -0.6263   37.2456 N   0  0  0  0  0  0  0  0  0  0  0  0
   -4.8742   -7.9580   34.0942 N   0  0  0  0  0  0  0  0  0  0  0  0
   -5.1014   -7.6005   32.7115 C   0  0  2  0  0  0  0  0  0  0  0  0
   -6.4026   -8.1065   32.2029 C   0  0  0  0  0  0  0  0  0  0  0  0
   -6.3340   -9.2488   31.5985 O   0  0  0  0  0  0  0  0  0  0  0  0
   -3.9840   -8.1694   31.8141 C   0  0  0  0  0  0  0  0  0  0  0  0
   -3.3567   -9.6272   32.6274 S   0  0  0  0  0  0  0  0  0  0  0  0
   -7.6672   -7.4876   32.3076 N   0  0  0  0  0  0  0  0  0  0  0  0
   -8.3807   -7.0755   33.4742 C   0  0  2  0  0  0  0  0  0  0  0  0
   -9.7911   -6.8000   33.0541 C   0  0  0  0  0  0  0  0  0  0  0  0
  -10.1462   -5.6178   32.7692 O   0  0  0  0  0  0  0  0  0  0  0  0
   -7.8354   -5.9188   34.2068 C   0  0  0  0  0  0  0  0  0  0  0  0
   -6.6166   -5.3180   33.6517 C   0  0  0  0  0  0  0  0  0  0  0  0
   -5.9703   -4.2581   34.1971 C   0  0  0  0  0  0  0  0  0  0  0  0
   -6.0698   -5.8927   32.5054 C   0  0  0  0  0  0  0  0  0  0  0  0
   -4.7843   -3.7546   33.6258 C   0  0  0  0  0  0  0  0  0  0  0  0
   -4.9055   -5.4120   31.9293 C   0  0  0  0  0  0  0  0  0  0  0  0
   -4.2522   -4.3266   32.4977 C   0  0  0  0  0  0  0  0  0  0  0  0
   -3.0795   -3.8328   31.9291 O   0  0  0  0  0  0  0  0  0  0  0  0
  -10.7489   -7.8314   32.9606 N   0  0  0  0  0  0  0  0  0  0  0  0
  -10.8786   -8.9807   33.8192 C   0  0  2  0  0  0  0  0  0  0  0  0
  -11.7040  -10.0212   33.1292 C   0  0  0  0  0  0  0  0  0  0  0  0
  -11.3006  -10.1733   31.9196 O   0  0  0  0  0  0  0  0  0  0  0  0
  -11.2746   -8.6393   35.1867 C   0  0  0  0  0  0  0  0  0  0  0  0
  -10.6431   -7.4637   35.8512 C   0  0  0  0  0  0  0  0  0  0  0  0
  -10.0178   -6.4426   34.9475 C   0  0  0  0  0  0  0  0  0  0  0  0
   -9.6978   -7.0972   33.6058 C   0  0  0  0  0  0  0  0  0  0  0  0
   -9.3364   -6.1003   32.6291 N   0  0  0  0  0  4  0  0  0  0  0  0
  -12.7595  -10.7818   33.5779 N   0  0  0  0  0  0  0  0  0  0  0  0
  -12.8080  -11.7533   34.6514 C   0  0  2  0  0  0  0  0  0  0  0  0
  -12.0929  -13.0186   34.3572 C   0  0  0  0  0  0  0  0  0  0  0  0
  -11.7070  -13.6685   35.4087 O   0  0  0  0  0  0  0  0  0  0  0  0
  -14.2514  -12.1184   34.9832 C   0  0  0  0  0  0  0  0  0  0  0  0
  -14.7180  -13.0487   34.0374 O   0  0  0  0  0  0  0  0  0  0  0  0
  -11.7961  -13.5693   33.1245 N   0  0  0  0  0  0  0  0  0  0  0  0
  -12.6786  -14.0272   32.0661 C   0  0  2  0  0  0  0  0  0  0  0  0
  -12.6136  -15.4812   31.8280 C   0  0  0  0  0  0  0  0  0  0  0  0
  -13.5134  -16.1428   32.5056 O   0  0  0  0  0  0  0  0  0  0  0  0
  -12.4868  -13.2077   30.8019 C   0  0  0  0  0  0  0  0  0  0  0  0
  -13.6013  -12.2113   30.6778 C   0  0  0  0  0  0  0  0  0  0  0  0
  -14.7258  -12.4272   31.6596 C   0  0  0  0  0  0  0  0  0  0  0  0
  -14.1464  -12.1034   33.0433 C   0  0  0  0  0  0  0  0  0  0  0  0
  -15.2478  -12.0629   34.0034 N   0  0  0  0  0  4  0  0  0  0  0  0
  -11.7634  -16.2240   31.0163 N   0  0  0  0  0  0  0  0  0  0  0  0
  -10.3058  -16.1782   30.9238 C   0  0  2  0  0  0  0  0  0  0  0  0
   -9.8210  -15.9699   29.5292 C   0  0  0  0  0  0  0  0  0  0  0  0
  -10.5496  -15.1224   28.8767 O   0  0  0  0  0  0  0  0  0  0  0  0
  -10.0723  -17.6343   31.3563 C   0  0  0  0  0  0  0  0  0  0  0  0
  -11.0224  -18.3599   30.4276 C   0  0  0  0  0  0  0  0  0  0  0  0
  -12.0703  -17.3048   30.0513 C   0  0  0  0  0  0  0  0  0  0  0  0
   -8.7583  -16.5127   28.8344 N   0  0  0  0  0  0  0  0  0  0  0  0
   -7.3364  -16.5042   29.0043 C   0  0  2  0  0  0  0  0  0  0  0  0
   -6.7316  -15.7984   30.1061 C   0  0  0  0  0  0  0  0  0  0  0  0
   -7.4076  -15.8137   31.2112 O   0  0  0  0  0  0  0  0  0  0  0  0
   -6.8796  -16.0146   27.6186 C   0  0  0  0  0  0  0  0  0  0  0  0
   -7.8748  -16.5905   26.6713 C   0  0  0  0  0  0  0  0  0  0  0  0
   -8.8310  -17.3325   27.5844 C   0  0  0  0  0  0  0  0  0  0  0  0
   -5.5202  -15.0852   30.1969 N   0  0  0  0  0  0  0  0  0  0  0  0
   -4.1564  -15.4940   30.1191 C   0  0  2  0  0  0  0  0  0  0  0  0
   -3.4257  -14.6586   29.1549 C   0  0  0  0  0  0  0  0  0  0  0  0
   -3.9833  -14.6520   27.9870 O   0  0  0  0  0  0  0  0  0  0  0  0
   -3.9220  -16.9444   29.7933 C   0  0  2  0  0  0  0  0  0  0  0  0
   -5.1767  -17.6651   29.3509 C   0  0  0  0  0  0  0  0  0  0  0  0
   -3.5329  -17.6176   31.1209 C   0  0  0  0  0  0  0  0  0  0  0  0
   -6.4260  -16.9571   29.8218 C   0  0  0  0  0  0  0  0  0  0  0  0
   -2.2748  -13.9018   29.2796 N   0  0  0  0  0  0  0  0  0  0  0  0
   -1.9092  -12.8038   30.1375 C   0  0  2  0  0  0  0  0  0  0  0  0
   -1.5289  -13.1435   31.5163 C   0  0  0  0  0  0  0  0  0  0  0  0
   -2.5282  -13.2880   32.3261 O   0  0  0  0  0  0  0  0  0  0  0  0
   -3.0023  -11.7135   30.1213 C   0  0  0  0  0  0  0  0  0  0  0  0
   -3.7680  -11.4481   31.7053 S   0  0  0  0  0  0  0  0  0  0  0  0
   -0.2751  -13.3330   32.1037 N   0  0  0  0  0  0  0  0  0  0  0  0
    0.8459  -14.1469   31.6928 C   0  0  2  0  0  0  0  0  0  0  0  0
    2.1654  -13.5765   32.0154 C   0  0  0  0  0  0  0  0  0  0  0  0
    2.7872  -14.2067   32.9796 O   0  0  0  0  0  0  0  0  0  0  0  0
    0.6981  -14.7187   30.3220 C   0  0  0  0  0  0  0  0  0  0  0  0
   -0.6571  -14.4375   29.8155 C   0  0  0  0  0  0  0  0  0  0  0  0
   -0.9683  -13.9372   28.5790 C   0  0  0  0  0  0  0  0  0  0  0  0
   -1.7196  -14.7091   30.6657 C   0  0  0  0  0  0  0  0  0  0  0  0
   -2.2996  -13.7227   28.2216 C   0  0  0  0  0  0  0  0  0  0  0  0
   -3.0364  -14.5087   30.3410 C   0  0  0  0  0  0  0  0  0  0  0  0
   -3.3314  -14.0043   29.0910 C   0  0  0  0  0  0  0  0  0  0  0  0
    2.8877  -12.4921   31.4921 N   0  0  0  0  0  0  0  0  0  0  0  0
    2.5384  -11.1024   31.3997 C   0  0  2  0  0  0  0  0  0  0  0  0
    1.3264  -10.6149   31.9994 C   0  0  0  0  0  0  0  0  0  0  0  0
    0.3376  -10.4587   31.1871 O   0  0  0  0  0  0  0  0  0  0  0  0
    2.6236  -10.9251   29.8879 C   0  0  0  0  0  0  0  0  0  0  0  0
    4.0256  -11.5385   29.7012 C   0  0  0  0  0  0  0  0  0  0  0  0
    4.2600  -12.4190   30.9022 C   0  0  0  0  0  0  0  0  0  0  0  0
    1.1828  -10.3133   33.3720 N   0  0  0  0  0  0  0  0  0  0  0  0
    2.0913   -9.6491   34.2406 C   0  0  2  0  0  0  0  0  0  0  0  0
    2.7635   -8.4463   33.6977 C   0  0  0  0  0  0  0  0  0  0  0  0
    4.0207   -8.5237   33.5169 O   0  0  0  0  0  0  0  0  0  0  0  0
    3.1229  -10.6050   34.8474 C   0  0  0  0  0  0  0  0  0  0  0  0
    4.4859  -10.0251   34.7674 C   0  0  0  0  0  0  0  0  0  0  0  0
    4.9581   -9.2106   35.7859 O   0  0  0  0  0  0  0  0  0  0  0  0
    5.2490  -10.2442   33.7956 O   0  0  0  0  0  0  0  0  0  0  0  0
    1.5970   -6.0950   32.8996 O   0  0  0  0  0  0  0  0  0  0  0  0
   -4.5230   -0.2597   36.4653 H   0  0  0  0  0  0  0  0  0  0  0  0
  1  2  1  0
  1106  1  0
  1112  1  0
  2  3  1  0
  2112  1  6
  3  4  2  0
  3  5  1  0
  5  6  1  0
  6  7  1  0
  6  9  1  6
  7  8  2  0
  7 16  1  0
  9 10  1  0
 10 11  1  0
 11 12  1  0
 12 13  1  0
 13 14  1  0
 13 15  2  0
 17 16  1  1
 17 18  1  0
 17 20  1  0
 18 19  2  0
 18 22  1  0
 20 21  1  0
 21 85  1  0
 22 23  1  0
 23 24  1  0
 23 26  1  6
 24 25  2  0
 24 34  1  0
 26 27  1  0
 27 28  2  0
 27 29  1  0
 28 30  1  0
 29 31  2  0
 30 32  2  0
 31 32  1  0
 32 33  1  0
 34 35  1  0
 35 36  1  0
 35 38  1  1
 36 37  2  0
 36 43  1  0
 38 39  1  0
 39 40  1  0
 40 41  1  0
 41 42  1  0
 43 44  1  0
 44 45  1  0
 44 47  1  6
 45 46  2  0
 45 49  1  0
 47 48  1  0
 49 50  1  0
 50 51  1  0
 50 53  1  6
 51 52  2  0
 51 58  1  0
 53 54  1  0
 54 55  1  0
 55 56  1  0
 56 57  1  0
 58 59  1  0
 58 64  1  0
 59 60  1  0
 59 62  1  6
 60 61  2  0
 60 65  1  0
 62 63  1  0
 63 64  1  0
 65 66  1  0
 65 71  1  0
 66 67  1  0
 66 69  1  6
 67 68  2  0
 67 72  1  0
 69 70  1  0
 70 71  1  0
 73 72  1  6
 73 74  1  0
 73 76  1  0
 74 75  2  0
 74 80  1  0
 76 77  1  0
 76 78  1  1
 77 79  1  0
 81 80  1  1
 81 82  1  0
 81 84  1  0
 82 83  2  0
 82 86  1  0
 84 85  1  0
 86 87  1  0
 87 88  1  0
 87 90  1  6
 88 89  2  0
 88 97  1  0
 90 91  1  0
 91 92  2  0
 91 93  1  0
 92 94  1  0
 93 95  2  0
 94 96  2  0
 95 96  1  0
 97 98  1  0
 97103  1  0
 98 99  1  0
 98101  1  6
 99100  2  0
 99104  1  0
101102  1  0
102103  1  0
104105  1  0
105106  1  0
105108  1  6
106107  2  0
108109  1  0
109110  1  0
109111  2  0
 15113  1  0
M  CHG  2  42   1  57   1
M  END
$$$$
