
     RDKit          3D

113120  0  0  0  0  0  0  0  0999 V2000
    2.5478   -7.5639   34.2543 N   0  0  0  0  0  0  0  0  0  0  0  0
    1.4274   -7.1119   34.8847 C   0  0  2  0  0  0  0  0  0  0  0  0
    0.1499   -7.7382   34.4641 C   0  0  0  0  0  0  0  0  0  0  0  0
    0.1016   -7.8472   33.1569 O   0  0  0  0  0  0  0  0  0  0  0  0
   -0.9266   -8.1983   35.2121 N   0  0  0  0  0  0  0  0  0  0  0  0
   -2.1312   -7.6272   35.7271 C   0  0  2  0  0  0  0  0  0  0  0  0
   -3.2863   -8.5254   35.3585 C   0  0  0  0  0  0  0  0  0  0  0  0
   -3.1214   -9.7176   35.8200 O   0  0  0  0  0  0  0  0  0  0  0  0
   -2.4148   -6.2024   35.5258 C   0  0  0  0  0  0  0  0  0  0  0  0
   -1.2945   -5.2430   35.8162 C   0  0  0  0  0  0  0  0  0  0  0  0
   -1.7818   -4.0631   36.6486 C   0  0  0  0  0  0  0  0  0  0  0  0
   -1.3585   -4.2040   38.0204 N   0  0  0  0  0  0  0  0  0  0  0  0
   -1.7878   -3.3107   39.0257 C   0  0  0  0  0  0  0  0  0  0  0  0
   -2.3787   -2.0875   38.5990 N   0  0  0  0  0  0  0  0  0  0  0  0
   -1.6377   -3.6191   40.2580 N   0  0  0  0  0  0  0  0  0  0  0  0
   -4.4210   -8.2501   34.6384 N   0  0  0  0  0  0  0  0  0  0  0  0
   -4.6018   -7.6425   33.3385 C   0  0  2  0  0  0  0  0  0  0  0  0
   -5.8947   -8.0215   32.7119 C   0  0  0  0  0  0  0  0  0  0  0  0
   -5.8252   -9.0359   31.9113 O   0  0  0  0  0  0  0  0  0  0  0  0
   -3.4668   -8.0609   32.3822 C   0  0  0  0  0  0  0  0  0  0  0  0
   -2.8856   -9.6546   32.9323 S   0  0  0  0  0  0  0  0  0  0  0  0
   -7.1525   -7.4068   32.8942 N   0  0  0  0  0  0  0  0  0  0  0  0
   -7.8941   -7.1996   34.0972 C   0  0  2  0  0  0  0  0  0  0  0  0
   -9.2872   -6.8241   33.6972 C   0  0  0  0  0  0  0  0  0  0  0  0
   -9.6161   -5.6030   33.6236 O   0  0  0  0  0  0  0  0  0  0  0  0
   -7.3537   -6.2066   35.0427 C   0  0  0  0  0  0  0  0  0  0  0  0
   -6.2534   -5.3721   34.5451 C   0  0  0  0  0  0  0  0  0  0  0  0
   -5.2904   -5.8048   33.6942 C   0  0  0  0  0  0  0  0  0  0  0  0
   -6.2115   -4.0387   34.9498 C   0  0  0  0  0  0  0  0  0  0  0  0
   -4.2815   -4.9358   33.2322 C   0  0  0  0  0  0  0  0  0  0  0  0
   -5.2280   -3.1698   34.5069 C   0  0  0  0  0  0  0  0  0  0  0  0
   -4.2479   -3.6244   33.6348 C   0  0  0  0  0  0  0  0  0  0  0  0
   -3.2527   -2.7609   33.1806 O   0  0  0  0  0  0  0  0  0  0  0  0
  -10.2570   -7.8020   33.3919 N   0  0  0  0  0  0  0  0  0  0  0  0
  -10.4291   -9.0855   34.0228 C   0  0  2  0  0  0  0  0  0  0  0  0
  -11.2490   -9.9663   33.1329 C   0  0  0  0  0  0  0  0  0  0  0  0
  -10.8123   -9.9039   31.9270 O   0  0  0  0  0  0  0  0  0  0  0  0
  -10.8604   -8.9907   35.4186 C   0  0  0  0  0  0  0  0  0  0  0  0
  -11.5434   -7.7494   35.8826 C   0  0  0  0  0  0  0  0  0  0  0  0
  -11.0696   -6.4611   35.2775 C   0  0  0  0  0  0  0  0  0  0  0  0
  -10.4018   -5.6195   36.3623 C   0  0  0  0  0  0  0  0  0  0  0  0
  -10.2762   -4.2485   35.9344 N   0  0  0  0  0  4  0  0  0  0  0  0
  -12.3285  -10.7746   33.4072 N   0  0  0  0  0  0  0  0  0  0  0  0
  -12.4233  -11.9240   34.2839 C   0  0  2  0  0  0  0  0  0  0  0  0
  -11.7186  -13.1287   33.7828 C   0  0  0  0  0  0  0  0  0  0  0  0
  -11.3737  -13.9667   34.7080 O   0  0  0  0  0  0  0  0  0  0  0  0
  -13.8811  -12.3145   34.5053 C   0  0  0  0  0  0  0  0  0  0  0  0
  -14.3599  -12.9693   33.3565 O   0  0  0  0  0  0  0  0  0  0  0  0
  -11.3937  -13.4519   32.4787 N   0  0  0  0  0  0  0  0  0  0  0  0
  -12.2510  -13.6918   31.3316 C   0  0  2  0  0  0  0  0  0  0  0  0
  -12.2006  -15.0793   30.8340 C   0  0  0  0  0  0  0  0  0  0  0  0
  -13.1298  -15.8350   31.3555 O   0  0  0  0  0  0  0  0  0  0  0  0
  -12.0098  -12.6600   30.2435 C   0  0  0  0  0  0  0  0  0  0  0  0
  -12.5401  -11.3295   30.6895 C   0  0  0  0  0  0  0  0  0  0  0  0
  -12.7643  -11.2289   32.1776 C   0  0  0  0  0  0  0  0  0  0  0  0
  -12.7357   -9.7307   32.5088 C   0  0  0  0  0  0  0  0  0  0  0  0
  -13.3260   -9.5426   33.8327 N   0  0  0  0  0  4  0  0  0  0  0  0
  -11.3378  -15.6789   29.9232 N   0  0  0  0  0  0  0  0  0  0  0  0
   -9.8776  -15.6461   29.8792 C   0  0  2  0  0  0  0  0  0  0  0  0
   -9.3487  -15.1973   28.5593 C   0  0  0  0  0  0  0  0  0  0  0  0
  -10.0450  -14.2309   28.0533 O   0  0  0  0  0  0  0  0  0  0  0  0
   -9.6787  -17.1610   30.0448 C   0  0  0  0  0  0  0  0  0  0  0  0
  -10.6115  -17.6864   28.9746 C   0  0  0  0  0  0  0  0  0  0  0  0
  -11.6320  -16.5596   28.7694 C   0  0  0  0  0  0  0  0  0  0  0  0
   -8.2740  -15.6258   27.8054 N   0  0  0  0  0  0  0  0  0  0  0  0
   -6.8578  -15.6768   28.0116 C   0  0  2  0  0  0  0  0  0  0  0  0
   -6.2755  -15.1954   29.2392 C   0  0  0  0  0  0  0  0  0  0  0  0
   -6.9841  -15.3980   30.3047 O   0  0  0  0  0  0  0  0  0  0  0  0
   -6.3529  -14.9525   26.7510 C   0  0  0  0  0  0  0  0  0  0  0  0
   -7.3280  -15.3264   25.6886 C   0  0  0  0  0  0  0  0  0  0  0  0
   -8.3218  -16.2029   26.4254 C   0  0  0  0  0  0  0  0  0  0  0  0
   -5.0569  -14.5350   29.4907 N   0  0  0  0  0  0  0  0  0  0  0  0
   -3.6976  -14.9500   29.3756 C   0  0  2  0  0  0  0  0  0  0  0  0
   -2.9263  -13.9679   28.5996 C   0  0  0  0  0  0  0  0  0  0  0  0
   -3.4489  -13.7379   27.4382 O   0  0  0  0  0  0  0  0  0  0  0  0
   -3.4752  -16.3213   28.7971 C   0  0  2  0  0  0  0  0  0  0  0  0
   -2.0202  -16.7366   28.7930 C   0  0  0  0  0  0  0  0  0  0  0  0
   -3.8557  -16.2187   27.3098 C   0  0  0  0  0  0  0  0  0  0  0  0
   -1.1756  -15.8300   29.6580 C   0  0  0  0  0  0  0  0  0  0  0  0
   -1.7685  -13.2696   28.8908 N   0  0  0  0  0  0  0  0  0  0  0  0
   -1.4123  -12.3535   29.9439 C   0  0  2  0  0  0  0  0  0  0  0  0
   -1.0780  -12.9460   31.2472 C   0  0  0  0  0  0  0  0  0  0  0  0
   -2.1030  -13.2153   31.9903 O   0  0  0  0  0  0  0  0  0  0  0  0
   -2.4881  -11.2568   30.0979 C   0  0  0  0  0  0  0  0  0  0  0  0
   -3.2964  -11.2688   31.6830 S   0  0  0  0  0  0  0  0  0  0  0  0
    0.1549  -13.2642   31.8231 N   0  0  0  0  0  0  0  0  0  0  0  0
    1.2754  -14.0120   31.3004 C   0  0  2  0  0  0  0  0  0  0  0  0
    2.5930  -13.5363   31.7564 C   0  0  0  0  0  0  0  0  0  0  0  0
    3.1765  -14.3437   32.6055 O   0  0  0  0  0  0  0  0  0  0  0  0
    1.1597  -14.3218   29.8449 C   0  0  0  0  0  0  0  0  0  0  0  0
   -0.1833  -13.9468   29.3675 C   0  0  0  0  0  0  0  0  0  0  0  0
   -0.8630  -12.8019   29.6887 C   0  0  0  0  0  0  0  0  0  0  0  0
   -0.8192  -14.8311   28.5077 C   0  0  0  0  0  0  0  0  0  0  0  0
   -2.1320  -12.5652   29.1599 C   0  0  0  0  0  0  0  0  0  0  0  0
   -2.0645  -14.6242   27.9731 C   0  0  0  0  0  0  0  0  0  0  0  0
   -2.7346  -13.4653   28.3074 C   0  0  0  0  0  0  0  0  0  0  0  0
    3.3465  -12.3894   31.4589 N   0  0  0  0  0  0  0  0  0  0  0  0
    3.0207  -10.9994   31.6124 C   0  0  2  0  0  0  0  0  0  0  0  0
    1.7989  -10.6050   32.2587 C   0  0  0  0  0  0  0  0  0  0  0  0
    0.8370  -10.2839   31.4627 O   0  0  0  0  0  0  0  0  0  0  0  0
    3.1534  -10.5518   30.1611 C   0  0  0  0  0  0  0  0  0  0  0  0
    4.5510  -11.1489   29.9028 C   0  0  0  0  0  0  0  0  0  0  0  0
    4.7366  -12.2377   30.9288 C   0  0  0  0  0  0  0  0  0  0  0  0
    1.6192  -10.5553   33.6590 N   0  0  0  0  0  0  0  0  0  0  0  0
    2.5112  -10.0785   34.6579 C   0  0  2  0  0  0  0  0  0  0  0  0
    3.2171   -8.8107   34.3615 C   0  0  0  0  0  0  0  0  0  0  0  0
    4.4777   -8.8791   34.2029 O   0  0  0  0  0  0  0  0  0  0  0  0
    3.5101  -11.1492   35.1073 C   0  0  0  0  0  0  0  0  0  0  0  0
    4.3711  -10.6371   36.2013 C   0  0  0  0  0  0  0  0  0  0  0  0
    3.8124   -9.9282   37.2546 O   0  0  0  0  0  0  0  0  0  0  0  0
    5.6122  -10.8213   36.2165 O   0  0  0  0  0  0  0  0  0  0  0  0
    2.1098   -6.3306   33.9751 O   0  0  0  0  0  0  0  0  0  0  0  0
   -0.9039   -4.2718   40.5599 H   0  0  0  0  0  0  0  0  0  0  0  0
  1  2  1  0
  1106  1  0
  1112  1  0
  2  3  1  0
  2112  1  6
  3  4  2  0
  3  5  1  0
  5  6  1  0
  6  7  1  0
  6  9  1  6
  7  8  2  0
  7 16  1  0
  9 10  1  0
 10 11  1  0
 11 12  1  0
 12 13  1  0
 13 14  1  0
 13 15  2  0
 17 16  1  1
 17 18  1  0
 17 20  1  0
 18 19  2  0
 18 22  1  0
 20 21  1  0
 21 85  1  0
 22 23  1  0
 23 24  1  0
 23 26  1  6
 24 25  2  0
 24 34  1  0
 26 27  1  0
 27 28  2  0
 27 29  1  0
 28 30  1  0
 29 31  2  0
 30 32  2  0
 31 32  1  0
 32 33  1  0
 34 35  1  0
 35 36  1  0
 35 38  1  1
 36 37  2  0
 36 43  1  0
 38 39  1  0
 39 40  1  0
 40 41  1  0
 41 42  1  0
 43 44  1  0
 44 45  1  0
 44 47  1  6
 45 46  2  0
 45 49  1  0
 47 48  1  0
 49 50  1  0
 50 51  1  0
 50 53  1  6
 51 52  2  0
 51 58  1  0
 53 54  1  0
 54 55  1  0
 55 56  1  0
 56 57  1  0
 58 59  1  0
 58 64  1  0
 59 60  1  0
 59 62  1  6
 60 61  2  0
 60 65  1  0
 62 63  1  0
 63 64  1  0
 65 66  1  0
 65 71  1  0
 66 67  1  0
 66 69  1  6
 67 68  2  0
 67 72  1  0
 69 70  1  0
 70 71  1  0
 73 72  1  6
 73 74  1  0
 73 76  1  0
 74 75  2  0
 74 80  1  0
 76 77  1  0
 76 78  1  6
 77 79  1  0
 81 80  1  6
 81 82  1  0
 81 84  1  0
 82 83  2  0
 82 86  1  0
 84 85  1  0
 86 87  1  0
 87 88  1  0
 87 90  1  6
 88 89  2  0
 88 97  1  0
 90 91  1  0
 91 92  2  0
 91 93  1  0
 92 94  1  0
 93 95  2  0
 94 96  2  0
 95 96  1  0
 97 98  1  0
 97103  1  0
 98 99  1  0
 98101  1  6
 99100  2  0
 99104  1  0
101102  1  0
102103  1  0
104105  1  0
105106  1  0
105108  1  6
106107  2  0
108109  1  0
109110  1  0
109111  2  0
 15113  1  0
M  CHG  2  42   1  57   1
M  END
$$$$
