
     RDKit          3D

113120  0  0  0  0  0  0  0  0999 V2000
    1.0913   -7.6798   34.4842 N   0  0  0  0  0  0  0  0  0  0  0  0
   -0.1321   -7.1585   34.7817 C   0  0  2  0  0  0  0  0  0  0  0  0
   -1.3008   -7.9125   34.2651 C   0  0  0  0  0  0  0  0  0  0  0  0
   -1.0925   -8.2870   33.0244 O   0  0  0  0  0  0  0  0  0  0  0  0
   -2.5011   -8.2574   34.8734 N   0  0  0  0  0  0  0  0  0  0  0  0
   -3.7849   -7.6467   35.0194 C   0  0  2  0  0  0  0  0  0  0  0  0
   -4.8430   -8.6506   34.6326 C   0  0  0  0  0  0  0  0  0  0  0  0
   -4.7675   -9.7157   35.3547 O   0  0  0  0  0  0  0  0  0  0  0  0
   -4.0284   -6.3064   34.4759 C   0  0  0  0  0  0  0  0  0  0  0  0
   -3.4837   -5.1484   35.2648 C   0  0  0  0  0  0  0  0  0  0  0  0
   -3.9334   -5.2130   36.7195 C   0  0  0  0  0  0  0  0  0  0  0  0
   -3.5471   -4.0133   37.4211 N   0  0  0  0  0  0  0  0  0  0  0  0
   -4.2710   -3.5394   38.5366 C   0  0  0  0  0  0  0  0  0  0  0  0
   -5.0466   -4.4897   39.2595 N   0  0  0  0  0  0  0  0  0  0  0  0
   -4.2096   -2.3024   38.8568 N   0  0  0  0  0  0  0  0  0  0  0  0
   -5.8160   -8.5774   33.6684 N   0  0  0  0  0  0  0  0  0  0  0  0
   -5.7413   -8.2554   32.2605 C   0  0  2  0  0  0  0  0  0  0  0  0
   -6.8858   -8.8099   31.4920 C   0  0  0  0  0  0  0  0  0  0  0  0
   -6.6579   -9.9619   30.9481 O   0  0  0  0  0  0  0  0  0  0  0  0
   -4.4401   -8.8094   31.6461 C   0  0  0  0  0  0  0  0  0  0  0  0
   -3.9725  -10.2310   32.6160 S   0  0  0  0  0  0  0  0  0  0  0  0
   -8.1569   -8.2265   31.2995 N   0  0  0  0  0  0  0  0  0  0  0  0
   -9.1198   -7.8117   32.2694 C   0  0  2  0  0  0  0  0  0  0  0  0
  -10.4091   -7.5866   31.5423 C   0  0  0  0  0  0  0  0  0  0  0  0
  -10.7212   -6.4215   31.1550 O   0  0  0  0  0  0  0  0  0  0  0  0
   -8.7777   -6.6245   33.0729 C   0  0  0  0  0  0  0  0  0  0  0  0
   -7.5908   -5.8743   32.6449 C   0  0  0  0  0  0  0  0  0  0  0  0
   -6.5733   -6.4020   31.9205 C   0  0  0  0  0  0  0  0  0  0  0  0
   -7.5177   -4.5229   32.9792 C   0  0  0  0  0  0  0  0  0  0  0  0
   -5.4789   -5.6109   31.5168 C   0  0  0  0  0  0  0  0  0  0  0  0
   -6.4504   -3.7295   32.5920 C   0  0  0  0  0  0  0  0  0  0  0  0
   -5.4151   -4.2812   31.8493 C   0  0  0  0  0  0  0  0  0  0  0  0
   -4.3353   -3.4945   31.4523 O   0  0  0  0  0  0  0  0  0  0  0  0
  -11.2974   -8.6475   31.2681 N   0  0  0  0  0  0  0  0  0  0  0  0
  -11.5854   -9.7822   32.1075 C   0  0  2  0  0  0  0  0  0  0  0  0
  -12.2129  -10.8605   31.2808 C   0  0  0  0  0  0  0  0  0  0  0  0
  -11.5492  -11.0256   30.1940 O   0  0  0  0  0  0  0  0  0  0  0  0
  -12.2813   -9.4244   33.3448 C   0  0  0  0  0  0  0  0  0  0  0  0
  -11.5979   -8.5381   34.3296 C   0  0  0  0  0  0  0  0  0  0  0  0
  -12.2544   -7.2181   34.6072 C   0  0  0  0  0  0  0  0  0  0  0  0
  -11.2826   -6.3346   35.3857 C   0  0  0  0  0  0  0  0  0  0  0  0
  -11.9151   -5.0950   35.7622 N   0  0  0  0  0  4  0  0  0  0  0  0
  -13.3226  -11.6426   31.5065 N   0  0  0  0  0  0  0  0  0  0  0  0
  -13.5831  -12.5927   32.5686 C   0  0  2  0  0  0  0  0  0  0  0  0
  -12.7902  -13.8421   32.4726 C   0  0  0  0  0  0  0  0  0  0  0  0
  -12.6301  -14.4585   33.6002 O   0  0  0  0  0  0  0  0  0  0  0  0
  -15.0548  -12.9933   32.5847 C   0  0  0  0  0  0  0  0  0  0  0  0
  -15.3959  -13.5360   31.3329 O   0  0  0  0  0  0  0  0  0  0  0  0
  -12.2158  -14.4092   31.3505 N   0  0  0  0  0  0  0  0  0  0  0  0
  -12.8318  -14.9146   30.1366 C   0  0  2  0  0  0  0  0  0  0  0  0
  -12.6807  -16.3707   29.9573 C   0  0  0  0  0  0  0  0  0  0  0  0
  -13.6915  -17.0444   30.4379 O   0  0  0  0  0  0  0  0  0  0  0  0
  -12.3860  -14.1161   28.9240 C   0  0  0  0  0  0  0  0  0  0  0  0
  -11.4952  -12.9925   29.3650 C   0  0  0  0  0  0  0  0  0  0  0  0
  -10.5835  -13.3500   30.5121 C   0  0  0  0  0  0  0  0  0  0  0  0
  -11.1988  -14.5929   31.1692 C   0  0  0  0  0  0  0  0  0  0  0  0
  -12.3917  -14.1788   31.9056 N   0  0  0  0  0  4  0  0  0  0  0  0
  -11.6547  -17.1047   29.3725 N   0  0  0  0  0  0  0  0  0  0  0  0
  -10.2142  -17.0178   29.6015 C   0  0  2  0  0  0  0  0  0  0  0  0
   -9.4391  -16.8242   28.3425 C   0  0  0  0  0  0  0  0  0  0  0  0
  -10.0262  -16.0122   27.5235 O   0  0  0  0  0  0  0  0  0  0  0  0
  -10.0466  -18.4572   30.1133 C   0  0  0  0  0  0  0  0  0  0  0  0
  -10.7507  -19.2295   29.0182 C   0  0  0  0  0  0  0  0  0  0  0  0
  -11.7151  -18.2137   28.3927 C   0  0  0  0  0  0  0  0  0  0  0  0
   -8.2365  -17.3496   27.9130 N   0  0  0  0  0  0  0  0  0  0  0  0
   -6.8877  -17.2957   28.3911 C   0  0  2  0  0  0  0  0  0  0  0  0
   -6.5579  -16.5498   29.5796 C   0  0  0  0  0  0  0  0  0  0  0  0
   -7.4604  -16.5622   30.5091 O   0  0  0  0  0  0  0  0  0  0  0  0
   -6.1486  -16.8215   27.1271 C   0  0  0  0  0  0  0  0  0  0  0  0
   -6.8962  -17.4459   25.9999 C   0  0  0  0  0  0  0  0  0  0  0  0
   -8.0119  -18.1968   26.6999 C   0  0  0  0  0  0  0  0  0  0  0  0
   -5.4140  -15.7994   29.9156 N   0  0  0  0  0  0  0  0  0  0  0  0
   -4.0571  -16.1694   30.1503 C   0  0  2  0  0  0  0  0  0  0  0  0
   -3.1523  -15.3328   29.3485 C   0  0  0  0  0  0  0  0  0  0  0  0
   -3.4386  -15.3669   28.0868 O   0  0  0  0  0  0  0  0  0  0  0  0
   -3.7216  -17.6186   29.9228 C   0  0  2  0  0  0  0  0  0  0  0  0
   -2.2996  -17.8335   29.4525 C   0  0  0  0  0  0  0  0  0  0  0  0
   -4.5962  -18.0739   28.7417 C   0  0  0  0  0  0  0  0  0  0  0  0
   -1.6767  -16.5531   28.9462 C   0  0  0  0  0  0  0  0  0  0  0  0
   -2.0758  -14.5401   29.7030 N   0  0  0  0  0  0  0  0  0  0  0  0
   -1.9351  -13.4142   30.5907 C   0  0  2  0  0  0  0  0  0  0  0  0
   -1.8600  -13.7141   32.0280 C   0  0  0  0  0  0  0  0  0  0  0  0
   -3.0095  -13.8712   32.6018 O   0  0  0  0  0  0  0  0  0  0  0  0
   -3.0238  -12.3572   30.3055 C   0  0  0  0  0  0  0  0  0  0  0  0
   -4.1261  -12.0819   31.6749 S   0  0  0  0  0  0  0  0  0  0  0  0
   -0.7624  -13.8544   32.8815 N   0  0  0  0  0  0  0  0  0  0  0  0
    0.4410  -14.6432   32.7489 C   0  0  2  0  0  0  0  0  0  0  0  0
    1.6427  -14.0276   33.3383 C   0  0  0  0  0  0  0  0  0  0  0  0
    2.0516  -14.6192   34.4320 O   0  0  0  0  0  0  0  0  0  0  0  0
    0.6129  -15.2472   31.3948 C   0  0  0  0  0  0  0  0  0  0  0  0
   -0.5124  -16.1572   31.1158 C   0  0  0  0  0  0  0  0  0  0  0  0
   -0.5942  -17.0432   30.0745 C   0  0  0  0  0  0  0  0  0  0  0  0
   -1.5887  -16.1196   31.9908 C   0  0  0  0  0  0  0  0  0  0  0  0
   -1.7189  -17.8554   29.9286 C   0  0  0  0  0  0  0  0  0  0  0  0
   -2.7055  -16.9058   31.8721 C   0  0  0  0  0  0  0  0  0  0  0  0
   -2.7707  -17.7928   30.8172 C   0  0  0  0  0  0  0  0  0  0  0  0
    2.4361  -12.9334   32.9578 N   0  0  0  0  0  0  0  0  0  0  0  0
    2.0822  -11.5568   32.7540 C   0  0  2  0  0  0  0  0  0  0  0  0
    0.7564  -11.0930   33.0594 C   0  0  0  0  0  0  0  0  0  0  0  0
   -0.0325  -10.9828   32.0457 O   0  0  0  0  0  0  0  0  0  0  0  0
    2.4943  -11.4083   31.2937 C   0  0  0  0  0  0  0  0  0  0  0  0
    3.9174  -11.9838   31.4362 C   0  0  0  0  0  0  0  0  0  0  0  0
    3.9024  -12.8320   32.6824 C   0  0  0  0  0  0  0  0  0  0  0  0
    0.3065  -10.7675   34.3583 N   0  0  0  0  0  0  0  0  0  0  0  0
    0.9847  -10.0590   35.3874 C   0  0  2  0  0  0  0  0  0  0  0  0
    1.7308   -8.8484   34.9737 C   0  0  0  0  0  0  0  0  0  0  0  0
    2.9983   -8.8924   35.0758 O   0  0  0  0  0  0  0  0  0  0  0  0
    1.8800  -10.9713   36.2314 C   0  0  0  0  0  0  0  0  0  0  0  0
    2.3702  -10.2567   37.4354 C   0  0  0  0  0  0  0  0  0  0  0  0
    1.8634   -9.0068   37.7591 O   0  0  0  0  0  0  0  0  0  0  0  0
    3.2440  -10.7449   38.1922 O   0  0  0  0  0  0  0  0  0  0  0  0
    0.7123   -6.5494   33.8764 O   0  0  0  0  0  0  0  0  0  0  0  0
   -4.7597   -1.9248   39.6381 H   0  0  0  0  0  0  0  0  0  0  0  0
  1  2  1  0
  1106  1  0
  1112  1  0
  2  3  1  0
  2112  1  6
  3  4  2  0
  3  5  1  0
  5  6  1  0
  6  7  1  0
  6  9  1  6
  7  8  2  0
  7 16  1  0
  9 10  1  0
 10 11  1  0
 11 12  1  0
 12 13  1  0
 13 14  1  0
 13 15  2  0
 17 16  1  1
 17 18  1  0
 17 20  1  0
 18 19  2  0
 18 22  1  0
 20 21  1  0
 21 85  1  0
 22 23  1  0
 23 24  1  0
 23 26  1  6
 24 25  2  0
 24 34  1  0
 26 27  1  0
 27 28  2  0
 27 29  1  0
 28 30  1  0
 29 31  2  0
 30 32  2  0
 31 32  1  0
 32 33  1  0
 34 35  1  0
 35 36  1  0
 35 38  1  1
 36 37  2  0
 36 43  1  0
 38 39  1  0
 39 40  1  0
 40 41  1  0
 41 42  1  0
 43 44  1  0
 44 45  1  0
 44 47  1  6
 45 46  2  0
 45 49  1  0
 47 48  1  0
 49 50  1  0
 50 51  1  0
 50 53  1  6
 51 52  2  0
 51 58  1  0
 53 54  1  0
 54 55  1  0
 55 56  1  0
 56 57  1  0
 58 59  1  0
 58 64  1  0
 59 60  1  0
 59 62  1  6
 60 61  2  0
 60 65  1  0
 62 63  1  0
 63 64  1  0
 65 66  1  0
 65 71  1  0
 66 67  1  0
 66 69  1  6
 67 68  2  0
 67 72  1  0
 69 70  1  0
 70 71  1  0
 73 72  1  6
 73 74  1  0
 73 76  1  0
 74 75  2  0
 74 80  1  0
 76 77  1  0
 76 78  1  6
 77 79  1  0
 81 80  1  6
 81 82  1  0
 81 84  1  0
 82 83  2  0
 82 86  1  0
 84 85  1  0
 86 87  1  0
 87 88  1  0
 87 90  1  6
 88 89  2  0
 88 97  1  0
 90 91  1  0
 91 92  2  0
 91 93  1  0
 92 94  1  0
 93 95  2  0
 94 96  2  0
 95 96  1  0
 97 98  1  0
 97103  1  0
 98 99  1  0
 98101  1  6
 99100  2  0
 99104  1  0
101102  1  0
102103  1  0
104105  1  0
105106  1  0
105108  1  6
106107  2  0
108109  1  0
109110  1  0
109111  2  0
 15113  1  0
M  CHG  2  42   1  57   1
M  END
$$$$
