
     RDKit          3D

113120  0  0  0  0  0  0  0  0999 V2000
    1.7892   -7.2501   35.4251 N   0  0  0  0  0  0  0  0  0  0  0  0
    0.5936   -6.8799   35.9640 C   0  0  2  0  0  0  0  0  0  0  0  0
   -0.6044   -7.5579   35.4105 C   0  0  0  0  0  0  0  0  0  0  0  0
   -0.5297   -7.6242   34.1017 O   0  0  0  0  0  0  0  0  0  0  0  0
   -1.7160   -8.0996   36.0436 N   0  0  0  0  0  0  0  0  0  0  0  0
   -2.9917   -7.6109   36.4635 C   0  0  2  0  0  0  0  0  0  0  0  0
   -4.0576   -8.5555   35.9650 C   0  0  0  0  0  0  0  0  0  0  0  0
   -3.8684   -9.7525   36.4042 O   0  0  0  0  0  0  0  0  0  0  0  0
   -3.3351   -6.1969   36.2793 C   0  0  0  0  0  0  0  0  0  0  0  0
   -4.7629   -5.8086   36.5447 C   0  0  0  0  0  0  0  0  0  0  0  0
   -5.6670   -6.2077   35.3846 C   0  0  0  0  0  0  0  0  0  0  0  0
   -4.9746   -7.1024   34.4896 N   0  0  0  0  0  0  0  0  0  0  0  0
   -5.5981   -7.6313   33.3388 C   0  0  0  0  0  0  0  0  0  0  0  0
   -5.4103   -6.9265   32.1159 N   0  0  0  0  0  0  0  0  0  0  0  0
   -6.2945   -8.7007   33.4265 N   0  0  0  0  0  0  0  0  0  0  0  0
   -5.1370   -8.3159   35.1530 N   0  0  0  0  0  0  0  0  0  0  0  0
   -5.2346   -7.6744   33.8606 C   0  0  2  0  0  0  0  0  0  0  0  0
   -6.4433   -8.0993   33.1080 C   0  0  0  0  0  0  0  0  0  0  0  0
   -6.2462   -9.0805   32.2875 O   0  0  0  0  0  0  0  0  0  0  0  0
   -3.9973   -7.9991   32.9996 C   0  0  0  0  0  0  0  0  0  0  0  0
   -3.3797   -9.5779   33.5530 S   0  0  0  0  0  0  0  0  0  0  0  0
   -7.7446   -7.5584   33.1932 N   0  0  0  0  0  0  0  0  0  0  0  0
   -8.6010   -7.4322   34.3292 C   0  0  2  0  0  0  0  0  0  0  0  0
   -9.9716   -7.1172   33.8154 C   0  0  0  0  0  0  0  0  0  0  0  0
  -10.3601   -5.9133   33.7482 O   0  0  0  0  0  0  0  0  0  0  0  0
   -8.2032   -6.4452   35.3489 C   0  0  0  0  0  0  0  0  0  0  0  0
   -6.7971   -6.4802   35.7688 C   0  0  0  0  0  0  0  0  0  0  0  0
   -6.2315   -5.5897   36.6207 C   0  0  0  0  0  0  0  0  0  0  0  0
   -5.9971   -7.5138   35.2840 C   0  0  0  0  0  0  0  0  0  0  0  0
   -4.8805   -5.7055   37.0052 C   0  0  0  0  0  0  0  0  0  0  0  0
   -4.6676   -7.6440   35.6500 C   0  0  0  0  0  0  0  0  0  0  0  0
   -4.1001   -6.7264   36.5240 C   0  0  0  0  0  0  0  0  0  0  0  0
   -2.7638   -6.8456   36.9015 O   0  0  0  0  0  0  0  0  0  0  0  0
  -10.8543   -8.1337   33.3944 N   0  0  0  0  0  0  0  0  0  0  0  0
  -11.0103   -9.4455   33.9688 C   0  0  2  0  0  0  0  0  0  0  0  0
  -11.6973  -10.3373   32.9825 C   0  0  0  0  0  0  0  0  0  0  0  0
  -11.1588  -10.2104   31.8236 O   0  0  0  0  0  0  0  0  0  0  0  0
  -11.5691   -9.4216   35.3218 C   0  0  0  0  0  0  0  0  0  0  0  0
  -11.6731   -8.1190   36.0394 C   0  0  0  0  0  0  0  0  0  0  0  0
  -10.9906   -6.9474   35.3976 C   0  0  0  0  0  0  0  0  0  0  0  0
  -12.0078   -5.8253   35.2048 C   0  0  0  0  0  0  0  0  0  0  0  0
  -11.3732   -4.5377   35.3382 N   0  0  0  0  0  4  0  0  0  0  0  0
  -12.7503  -11.2104   33.1335 N   0  0  0  0  0  0  0  0  0  0  0  0
  -12.8588  -12.3926   33.9635 C   0  0  2  0  0  0  0  0  0  0  0  0
  -12.0462  -13.5405   33.4934 C   0  0  0  0  0  0  0  0  0  0  0  0
  -11.7392  -14.3904   34.4210 O   0  0  0  0  0  0  0  0  0  0  0  0
  -14.3065  -12.8669   34.0398 C   0  0  0  0  0  0  0  0  0  0  0  0
  -14.7324  -13.2477   32.7547 O   0  0  0  0  0  0  0  0  0  0  0  0
  -11.5887  -13.8010   32.2152 N   0  0  0  0  0  0  0  0  0  0  0  0
  -12.3256  -14.0462   30.9883 C   0  0  2  0  0  0  0  0  0  0  0  0
  -12.1538  -15.4112   30.4567 C   0  0  0  0  0  0  0  0  0  0  0  0
  -13.0823  -16.2323   30.8689 O   0  0  0  0  0  0  0  0  0  0  0  0
  -12.0459  -12.9663   29.9577 C   0  0  0  0  0  0  0  0  0  0  0  0
  -13.2337  -12.8182   29.0535 C   0  0  0  0  0  0  0  0  0  0  0  0
  -14.2951  -13.8693   29.2621 C   0  0  0  0  0  0  0  0  0  0  0  0
  -13.8303  -14.7066   30.4614 C   0  0  0  0  0  0  0  0  0  0  0  0
  -14.7442  -15.8373   30.6126 N   0  0  0  0  0  4  0  0  0  0  0  0
  -11.1811  -15.9327   29.6109 N   0  0  0  0  0  0  0  0  0  0  0  0
   -9.7269  -15.8214   29.7009 C   0  0  2  0  0  0  0  0  0  0  0  0
   -9.1080  -15.3003   28.4484 C   0  0  0  0  0  0  0  0  0  0  0  0
   -9.8091  -14.3550   27.9099 O   0  0  0  0  0  0  0  0  0  0  0  0
   -9.4595  -17.3285   29.8392 C   0  0  0  0  0  0  0  0  0  0  0  0
  -10.2624  -17.8653   28.6735 C   0  0  0  0  0  0  0  0  0  0  0  0
  -11.3216  -16.7876   28.4096 C   0  0  0  0  0  0  0  0  0  0  0  0
   -7.9482  -15.6452   27.7832 N   0  0  0  0  0  0  0  0  0  0  0  0
   -6.5554  -15.6285   28.1158 C   0  0  2  0  0  0  0  0  0  0  0  0
   -6.1127  -15.1595   29.4050 C   0  0  0  0  0  0  0  0  0  0  0  0
   -6.9013  -15.4358   30.3951 O   0  0  0  0  0  0  0  0  0  0  0  0
   -5.9811  -14.8356   26.9283 C   0  0  0  0  0  0  0  0  0  0  0  0
   -6.8352  -15.2237   25.7710 C   0  0  0  0  0  0  0  0  0  0  0  0
   -7.8404  -16.1762   26.3882 C   0  0  0  0  0  0  0  0  0  0  0  0
   -4.9601  -14.4448   29.7856 N   0  0  0  0  0  0  0  0  0  0  0  0
   -3.5749  -14.7833   29.7826 C   0  0  2  0  0  0  0  0  0  0  0  0
   -2.7934  -13.7357   29.1093 C   0  0  0  0  0  0  0  0  0  0  0  0
   -3.2221  -13.4938   27.9124 O   0  0  0  0  0  0  0  0  0  0  0  0
   -3.2258  -16.1203   29.1864 C   0  0  2  0  0  0  0  0  0  0  0  0
   -4.0152  -17.2635   29.7859 C   0  0  0  0  0  0  0  0  0  0  0  0
   -1.7682  -16.3965   29.5942 C   0  0  0  0  0  0  0  0  0  0  0  0
   -4.8340  -16.8170   30.9750 C   0  0  0  0  0  0  0  0  0  0  0  0
   -1.7068  -12.9878   29.5250 N   0  0  0  0  0  0  0  0  0  0  0  0
   -1.4975  -12.0909   30.6328 C   0  0  2  0  0  0  0  0  0  0  0  0
   -1.2485  -12.7094   31.9430 C   0  0  0  0  0  0  0  0  0  0  0  0
   -2.3191  -13.0579   32.5815 O   0  0  0  0  0  0  0  0  0  0  0  0
   -2.6422  -11.0584   30.7206 C   0  0  0  0  0  0  0  0  0  0  0  0
   -3.5868  -11.1676   32.2245 S   0  0  0  0  0  0  0  0  0  0  0  0
   -0.0562  -12.9817   32.6191 N   0  0  0  0  0  0  0  0  0  0  0  0
    1.1464  -13.6510   32.1787 C   0  0  2  0  0  0  0  0  0  0  0  0
    2.3896  -13.1223   32.7665 C   0  0  0  0  0  0  0  0  0  0  0  0
    2.9389  -13.9266   33.6411 O   0  0  0  0  0  0  0  0  0  0  0  0
    1.1785  -13.9161   30.7102 C   0  0  0  0  0  0  0  0  0  0  0  0
    0.3593  -12.9102   30.0108 C   0  0  0  0  0  0  0  0  0  0  0  0
   -0.7900  -13.1540   29.3067 C   0  0  0  0  0  0  0  0  0  0  0  0
    0.7859  -11.5913   30.0743 C   0  0  0  0  0  0  0  0  0  0  0  0
   -1.4760  -12.1049   28.6946 C   0  0  0  0  0  0  0  0  0  0  0  0
    0.1320  -10.5412   29.4832 C   0  0  0  0  0  0  0  0  0  0  0  0
   -1.0243  -10.8053   28.7781 C   0  0  0  0  0  0  0  0  0  0  0  0
    3.1016  -11.9277   32.5728 N   0  0  0  0  0  0  0  0  0  0  0  0
    2.6866  -10.5630   32.7370 C   0  0  2  0  0  0  0  0  0  0  0  0
    1.3919  -10.2561   33.2808 C   0  0  0  0  0  0  0  0  0  0  0  0
    0.4885   -9.9590   32.4103 O   0  0  0  0  0  0  0  0  0  0  0  0
    2.9231  -10.0593   31.3176 C   0  0  0  0  0  0  0  0  0  0  0  0
    4.3692  -10.5726   31.1700 C   0  0  0  0  0  0  0  0  0  0  0  0
    4.5228  -11.6847   32.1761 C   0  0  0  0  0  0  0  0  0  0  0  0
    1.0854  -10.2641   34.6597 N   0  0  0  0  0  0  0  0  0  0  0  0
    1.8568   -9.7756   35.7493 C   0  0  2  0  0  0  0  0  0  0  0  0
    2.5146   -8.4629   35.5559 C   0  0  0  0  0  0  0  0  0  0  0  0
    3.7862   -8.4591   35.5107 O   0  0  0  0  0  0  0  0  0  0  0  0
    2.8696  -10.8069   36.2559 C   0  0  0  0  0  0  0  0  0  0  0  0
    3.9207  -10.1523   37.0727 C   0  0  0  0  0  0  0  0  0  0  0  0
    4.0872   -8.7762   37.0220 O   0  0  0  0  0  0  0  0  0  0  0  0
    4.6841  -10.8040   37.8257 O   0  0  0  0  0  0  0  0  0  0  0  0
    1.3099   -6.0328   35.1437 O   0  0  0  0  0  0  0  0  0  0  0  0
   -7.1597   -8.7310   33.9797 H   0  0  0  0  0  0  0  0  0  0  0  0
  1  2  1  0
  1106  1  0
  1112  1  0
  2  3  1  0
  2112  1  6
  3  4  2  0
  3  5  1  0
  5  6  1  0
  6  7  1  0
  6  9  1  6
  7  8  2  0
  7 16  1  0
  9 10  1  0
 10 11  1  0
 11 12  1  0
 12 13  1  0
 13 14  1  0
 13 15  2  0
 17 16  1  1
 17 18  1  0
 17 20  1  0
 18 19  2  0
 18 22  1  0
 20 21  1  0
 21 85  1  0
 22 23  1  0
 23 24  1  0
 23 26  1  1
 24 25  2  0
 24 34  1  0
 26 27  1  0
 27 28  2  0
 27 29  1  0
 28 30  1  0
 29 31  2  0
 30 32  2  0
 31 32  1  0
 32 33  1  0
 34 35  1  0
 35 36  1  0
 35 38  1  1
 36 37  2  0
 36 43  1  0
 38 39  1  0
 39 40  1  0
 40 41  1  0
 41 42  1  0
 43 44  1  0
 44 45  1  0
 44 47  1  6
 45 46  2  0
 45 49  1  0
 47 48  1  0
 49 50  1  0
 50 51  1  0
 50 53  1  6
 51 52  2  0
 51 58  1  0
 53 54  1  0
 54 55  1  0
 55 56  1  0
 56 57  1  0
 58 59  1  0
 58 64  1  0
 59 60  1  0
 59 62  1  6
 60 61  2  0
 60 65  1  0
 62 63  1  0
 63 64  1  0
 65 66  1  0
 65 71  1  0
 66 67  1  0
 66 69  1  6
 67 68  2  0
 67 72  1  0
 69 70  1  0
 70 71  1  0
 73 72  1  6
 73 74  1  0
 73 76  1  0
 74 75  2  0
 74 80  1  0
 76 77  1  0
 76 78  1  1
 77 79  1  0
 81 80  1  6
 81 82  1  0
 81 84  1  0
 82 83  2  0
 82 86  1  0
 84 85  1  0
 86 87  1  0
 87 88  1  0
 87 90  1  6
 88 89  2  0
 88 97  1  0
 90 91  1  0
 91 92  2  0
 91 93  1  0
 92 94  1  0
 93 95  2  0
 94 96  2  0
 95 96  1  0
 97 98  1  0
 97103  1  0
 98 99  1  0
 98101  1  6
 99100  2  0
 99104  1  0
101102  1  0
102103  1  0
104105  1  0
105106  1  0
105108  1  6
106107  2  0
108109  1  0
109110  1  0
109111  2  0
 15113  1  0
M  CHG  2  42   1  57   1
M  END
$$$$
