
     RDKit          3D

113120  0  0  0  0  0  0  0  0999 V2000
    0.0080   -4.8173   35.3635 N   0  0  0  0  0  0  0  0  0  0  0  0
   -1.3115   -4.6951   35.6813 C   0  0  2  0  0  0  0  0  0  0  0  0
   -2.2156   -5.7174   35.0995 C   0  0  0  0  0  0  0  0  0  0  0  0
   -1.9180   -5.9279   33.8385 O   0  0  0  0  0  0  0  0  0  0  0  0
   -3.2592   -6.4370   35.6677 N   0  0  0  0  0  0  0  0  0  0  0  0
   -4.6637   -6.2364   35.8398 C   0  0  2  0  0  0  0  0  0  0  0  0
   -5.3883   -7.4743   35.3715 C   0  0  0  0  0  0  0  0  0  0  0  0
   -5.0013   -8.5195   36.0190 O   0  0  0  0  0  0  0  0  0  0  0  0
   -5.2899   -4.9896   35.3874 C   0  0  0  0  0  0  0  0  0  0  0  0
   -5.4382   -3.8983   36.4106 C   0  0  0  0  0  0  0  0  0  0  0  0
   -5.2121   -4.4308   37.8205 C   0  0  0  0  0  0  0  0  0  0  0  0
   -6.4720   -4.7360   38.4530 N   0  0  0  0  0  0  0  0  0  0  0  0
   -6.5601   -5.0254   39.8319 C   0  0  0  0  0  0  0  0  0  0  0  0
   -5.5656   -4.4598   40.6795 N   0  0  0  0  0  0  0  0  0  0  0  0
   -7.5066   -5.7674   40.2677 N   0  0  0  0  0  0  0  0  0  0  0  0
   -6.3488   -7.6192   34.4028 N   0  0  0  0  0  0  0  0  0  0  0  0
   -6.3825   -7.1919   33.0215 C   0  0  2  0  0  0  0  0  0  0  0  0
   -7.3232   -7.9993   32.2025 C   0  0  0  0  0  0  0  0  0  0  0  0
   -6.7756   -8.9949   31.5830 O   0  0  0  0  0  0  0  0  0  0  0  0
   -4.9816   -7.3007   32.3864 C   0  0  0  0  0  0  0  0  0  0  0  0
   -4.1138   -8.5898   33.2612 S   0  0  0  0  0  0  0  0  0  0  0  0
   -8.7105   -7.7974   32.0353 N   0  0  0  0  0  0  0  0  0  0  0  0
   -9.7442   -7.7483   33.0196 C   0  0  2  0  0  0  0  0  0  0  0  0
  -11.0494   -7.8563   32.2940 C   0  0  0  0  0  0  0  0  0  0  0  0
  -11.6892   -6.8077   31.9845 O   0  0  0  0  0  0  0  0  0  0  0  0
   -9.7544   -6.5720   33.9075 C   0  0  0  0  0  0  0  0  0  0  0  0
   -9.1536   -5.3474   33.3652 C   0  0  0  0  0  0  0  0  0  0  0  0
   -9.8297   -4.1899   33.1611 C   0  0  0  0  0  0  0  0  0  0  0  0
   -7.7917   -5.3653   33.0680 C   0  0  0  0  0  0  0  0  0  0  0  0
   -9.1780   -3.0421   32.6669 C   0  0  0  0  0  0  0  0  0  0  0  0
   -7.1338   -4.2478   32.5812 C   0  0  0  0  0  0  0  0  0  0  0  0
   -7.8369   -3.0680   32.3775 C   0  0  0  0  0  0  0  0  0  0  0  0
   -7.1875   -1.9356   31.8890 O   0  0  0  0  0  0  0  0  0  0  0  0
  -11.5942   -9.1073   31.9362 N   0  0  0  0  0  0  0  0  0  0  0  0
  -11.5337  -10.3325   32.6914 C   0  0  2  0  0  0  0  0  0  0  0  0
  -11.8284  -11.4860   31.7844 C   0  0  0  0  0  0  0  0  0  0  0  0
  -11.1544  -11.3754   30.6970 O   0  0  0  0  0  0  0  0  0  0  0  0
  -12.2932  -10.2791   33.9419 C   0  0  0  0  0  0  0  0  0  0  0  0
  -12.1798   -9.0701   34.8068 C   0  0  0  0  0  0  0  0  0  0  0  0
  -12.0913   -7.7499   34.0999 C   0  0  0  0  0  0  0  0  0  0  0  0
  -11.5624   -7.9786   32.6861 C   0  0  0  0  0  0  0  0  0  0  0  0
  -11.5809   -6.7493   31.9331 N   0  0  0  0  0  4  0  0  0  0  0  0
  -12.6617  -12.5698   31.9419 N   0  0  0  0  0  0  0  0  0  0  0  0
  -12.6266  -13.6264   32.9323 C   0  0  2  0  0  0  0  0  0  0  0  0
  -11.5064  -14.5825   32.7599 C   0  0  0  0  0  0  0  0  0  0  0  0
  -11.1649  -15.2032   33.8440 O   0  0  0  0  0  0  0  0  0  0  0  0
  -13.9188  -14.4365   32.9025 C   0  0  0  0  0  0  0  0  0  0  0  0
  -13.7648  -15.5124   32.0101 O   0  0  0  0  0  0  0  0  0  0  0  0
  -10.8015  -14.8790   31.6083 N   0  0  0  0  0  0  0  0  0  0  0  0
  -11.2546  -15.4553   30.3549 C   0  0  2  0  0  0  0  0  0  0  0  0
  -10.6892  -16.7888   30.0772 C   0  0  0  0  0  0  0  0  0  0  0  0
  -11.4571  -17.7584   30.4975 O   0  0  0  0  0  0  0  0  0  0  0  0
  -11.0696  -14.4792   29.2061 C   0  0  0  0  0  0  0  0  0  0  0  0
  -12.0363  -13.3418   29.3554 C   0  0  0  0  0  0  0  0  0  0  0  0
  -12.7906  -13.3489   30.6615 C   0  0  0  0  0  0  0  0  0  0  0  0
  -11.7384  -13.5734   31.7558 C   0  0  0  0  0  0  0  0  0  0  0  0
  -12.3691  -13.3381   33.0533 N   0  0  0  0  0  4  0  0  0  0  0  0
   -9.4994  -17.1513   29.4556 N   0  0  0  0  0  0  0  0  0  0  0  0
   -8.1441  -16.6668   29.7077 C   0  0  2  0  0  0  0  0  0  0  0  0
   -7.4689  -16.1694   28.4748 C   0  0  0  0  0  0  0  0  0  0  0  0
   -8.2731  -15.5073   27.7068 O   0  0  0  0  0  0  0  0  0  0  0  0
   -7.5620  -18.0279   30.1208 C   0  0  0  0  0  0  0  0  0  0  0  0
   -8.0210  -18.8927   28.9662 C   0  0  0  0  0  0  0  0  0  0  0  0
   -9.2437  -18.1589   28.4007 C   0  0  0  0  0  0  0  0  0  0  0  0
   -6.1693  -16.2924   28.0247 N   0  0  0  0  0  0  0  0  0  0  0  0
   -4.8901  -15.8834   28.5220 C   0  0  2  0  0  0  0  0  0  0  0  0
   -4.7810  -15.1587   29.7633 C   0  0  0  0  0  0  0  0  0  0  0  0
   -5.6333  -15.4970   30.6785 O   0  0  0  0  0  0  0  0  0  0  0  0
   -4.3308  -15.1283   27.3031 C   0  0  0  0  0  0  0  0  0  0  0  0
   -4.8746  -15.8623   26.1262 C   0  0  0  0  0  0  0  0  0  0  0  0
   -5.7188  -16.9513   26.7588 C   0  0  0  0  0  0  0  0  0  0  0  0
   -3.9010  -14.1344   30.1644 N   0  0  0  0  0  0  0  0  0  0  0  0
   -2.4932  -14.1106   30.3896 C   0  0  2  0  0  0  0  0  0  0  0  0
   -1.8766  -12.9939   29.6587 C   0  0  0  0  0  0  0  0  0  0  0  0
   -2.1513  -13.0213   28.3944 O   0  0  0  0  0  0  0  0  0  0  0  0
   -1.7538  -15.3808   30.0665 C   0  0  2  0  0  0  0  0  0  0  0  0
   -2.2837  -16.0807   28.8341 C   0  0  0  0  0  0  0  0  0  0  0  0
   -2.0528  -16.3493   31.2240 C   0  0  0  0  0  0  0  0  0  0  0  0
   -3.7792  -15.9146   28.6940 C   0  0  0  0  0  0  0  0  0  0  0  0
   -1.0734  -11.9499   30.0805 N   0  0  0  0  0  0  0  0  0  0  0  0
   -1.2578  -10.8964   31.0457 C   0  0  2  0  0  0  0  0  0  0  0  0
   -1.0870  -11.2612   32.4595 C   0  0  0  0  0  0  0  0  0  0  0  0
   -2.1367  -11.7844   33.0070 O   0  0  0  0  0  0  0  0  0  0  0  0
   -2.6086  -10.1831   30.8210 C   0  0  0  0  0  0  0  0  0  0  0  0
   -3.7319  -10.3354   32.1924 S   0  0  0  0  0  0  0  0  0  0  0  0
    0.0112  -11.1365   33.3147 N   0  0  0  0  0  0  0  0  0  0  0  0
    1.3905  -11.5314   33.1426 C   0  0  2  0  0  0  0  0  0  0  0  0
    2.3669  -10.6366   33.7880 C   0  0  0  0  0  0  0  0  0  0  0  0
    2.9389  -11.1591   34.8431 O   0  0  0  0  0  0  0  0  0  0  0  0
    1.7189  -11.9636   31.7522 C   0  0  0  0  0  0  0  0  0  0  0  0
    0.4875  -11.9938   30.9429 C   0  0  0  0  0  0  0  0  0  0  0  0
    0.3716  -12.4827   29.6687 C   0  0  0  0  0  0  0  0  0  0  0  0
   -0.6651  -11.4856   31.5250 C   0  0  0  0  0  0  0  0  0  0  0  0
   -0.8604  -12.4571   29.0147 C   0  0  0  0  0  0  0  0  0  0  0  0
   -1.8880  -11.4482   30.9065 C   0  0  0  0  0  0  0  0  0  0  0  0
   -1.9864  -11.9453   29.6230 C   0  0  0  0  0  0  0  0  0  0  0  0
    2.8057   -9.3356   33.4940 N   0  0  0  0  0  0  0  0  0  0  0  0
    2.0661   -8.1100   33.3815 C   0  0  2  0  0  0  0  0  0  0  0  0
    0.6654   -8.0729   33.7020 C   0  0  0  0  0  0  0  0  0  0  0  0
   -0.1300   -8.1256   32.6887 O   0  0  0  0  0  0  0  0  0  0  0  0
    2.4053   -7.7469   31.9402 C   0  0  0  0  0  0  0  0  0  0  0  0
    3.9352   -7.8938   32.0600 C   0  0  0  0  0  0  0  0  0  0  0  0
    4.1773   -8.7947   33.2442 C   0  0  0  0  0  0  0  0  0  0  0  0
    0.1512   -7.9832   35.0146 N   0  0  0  0  0  0  0  0  0  0  0  0
    0.6034   -7.1822   36.0986 C   0  0  2  0  0  0  0  0  0  0  0  0
    0.9629   -5.7815   35.7789 C   0  0  0  0  0  0  0  0  0  0  0  0
    2.1896   -5.4633   35.8932 O   0  0  0  0  0  0  0  0  0  0  0  0
    1.7317   -7.8524   36.8884 C   0  0  0  0  0  0  0  0  0  0  0  0
    2.8181   -8.2930   35.9794 C   0  0  0  0  0  0  0  0  0  0  0  0
    4.0451   -8.6817   36.4964 O   0  0  0  0  0  0  0  0  0  0  0  0
    2.6726   -8.3306   34.7337 O   0  0  0  0  0  0  0  0  0  0  0  0
   -0.6876   -3.8057   34.8308 O   0  0  0  0  0  0  0  0  0  0  0  0
   -7.6627   -6.7105   39.8913 H   0  0  0  0  0  0  0  0  0  0  0  0
  1  2  1  0
  1106  1  0
  1112  1  0
  2  3  1  0
  2112  1  6
  3  4  2  0
  3  5  1  0
  5  6  1  0
  6  7  1  0
  6  9  1  6
  7  8  2  0
  7 16  1  0
  9 10  1  0
 10 11  1  0
 11 12  1  0
 12 13  1  0
 13 14  1  0
 13 15  2  0
 17 16  1  1
 17 18  1  0
 17 20  1  0
 18 19  2  0
 18 22  1  0
 20 21  1  0
 21 85  1  0
 22 23  1  0
 23 24  1  0
 23 26  1  6
 24 25  2  0
 24 34  1  0
 26 27  1  0
 27 28  2  0
 27 29  1  0
 28 30  1  0
 29 31  2  0
 30 32  2  0
 31 32  1  0
 32 33  1  0
 34 35  1  0
 35 36  1  0
 35 38  1  1
 36 37  2  0
 36 43  1  0
 38 39  1  0
 39 40  1  0
 40 41  1  0
 41 42  1  0
 43 44  1  0
 44 45  1  0
 44 47  1  6
 45 46  2  0
 45 49  1  0
 47 48  1  0
 49 50  1  0
 50 51  1  0
 50 53  1  6
 51 52  2  0
 51 58  1  0
 53 54  1  0
 54 55  1  0
 55 56  1  0
 56 57  1  0
 58 59  1  0
 58 64  1  0
 59 60  1  0
 59 62  1  6
 60 61  2  0
 60 65  1  0
 62 63  1  0
 63 64  1  0
 65 66  1  0
 65 71  1  0
 66 67  1  0
 66 69  1  6
 67 68  2  0
 67 72  1  0
 69 70  1  0
 70 71  1  0
 73 72  1  6
 73 74  1  0
 73 76  1  0
 74 75  2  0
 74 80  1  0
 76 77  1  0
 76 78  1  1
 77 79  1  0
 81 80  1  6
 81 82  1  0
 81 84  1  0
 82 83  2  0
 82 86  1  0
 84 85  1  0
 86 87  1  0
 87 88  1  0
 87 90  1  6
 88 89  2  0
 88 97  1  0
 90 91  1  0
 91 92  2  0
 91 93  1  0
 92 94  1  0
 93 95  2  0
 94 96  2  0
 95 96  1  0
 97 98  1  0
 97103  1  0
 98 99  1  0
 98101  1  6
 99100  2  0
 99104  1  0
101102  1  0
102103  1  0
104105  1  0
105106  1  0
105108  1  6
106107  2  0
108109  1  0
109110  1  0
109111  2  0
 15113  1  0
M  CHG  2  42   1  57   1
M  END
$$$$
