
     RDKit          3D

113120  0  0  0  0  0  0  0  0999 V2000
   -1.2148   -4.5134   35.0954 N   0  0  0  0  0  0  0  0  0  0  0  0
   -2.4790   -4.7351   35.5533 C   0  0  2  0  0  0  0  0  0  0  0  0
   -3.1738   -5.9190   34.9905 C   0  0  0  0  0  0  0  0  0  0  0  0
   -2.9834   -5.9885   33.6936 O   0  0  0  0  0  0  0  0  0  0  0  0
   -3.9416   -6.8999   35.6055 N   0  0  0  0  0  0  0  0  0  0  0  0
   -5.3234   -7.0596   35.9333 C   0  0  2  0  0  0  0  0  0  0  0  0
   -5.7804   -8.4135   35.4487 C   0  0  0  0  0  0  0  0  0  0  0  0
   -5.0820   -9.3615   35.9732 O   0  0  0  0  0  0  0  0  0  0  0  0
   -6.2779   -5.9848   35.6418 C   0  0  0  0  0  0  0  0  0  0  0  0
   -5.9047   -4.6052   36.1079 C   0  0  0  0  0  0  0  0  0  0  0  0
   -6.1001   -4.4606   37.6124 C   0  0  0  0  0  0  0  0  0  0  0  0
   -6.9264   -3.3154   37.9064 N   0  0  0  0  0  0  0  0  0  0  0  0
   -7.3825   -3.0447   39.2147 C   0  0  0  0  0  0  0  0  0  0  0  0
   -6.4093   -3.0392   40.2540 N   0  0  0  0  0  0  0  0  0  0  0  0
   -8.6242   -2.8175   39.4220 N   0  0  0  0  0  0  0  0  0  0  0  0
   -6.7844   -8.7431   34.5739 N   0  0  0  0  0  0  0  0  0  0  0  0
   -7.0798   -8.2708   33.2393 C   0  0  2  0  0  0  0  0  0  0  0  0
   -7.8890   -9.2442   32.4611 C   0  0  0  0  0  0  0  0  0  0  0  0
   -7.1951  -10.0433   31.7161 O   0  0  0  0  0  0  0  0  0  0  0  0
   -5.7774   -8.0008   32.4594 C   0  0  0  0  0  0  0  0  0  0  0  0
   -4.5307   -9.0776   33.1423 S   0  0  0  0  0  0  0  0  0  0  0  0
   -9.2940   -9.3820   32.4506 N   0  0  0  0  0  0  0  0  0  0  0  0
  -10.1876   -9.6364   33.5353 C   0  0  2  0  0  0  0  0  0  0  0  0
  -11.5045  -10.0270   32.9394 C   0  0  0  0  0  0  0  0  0  0  0  0
  -12.4080   -9.1542   32.7760 O   0  0  0  0  0  0  0  0  0  0  0  0
  -10.3754   -8.5432   34.5058 C   0  0  0  0  0  0  0  0  0  0  0  0
  -10.2988   -7.1800   33.9669 C   0  0  0  0  0  0  0  0  0  0  0  0
  -10.2139   -6.8838   32.6464 C   0  0  0  0  0  0  0  0  0  0  0  0
  -10.3463   -6.1183   34.8691 C   0  0  0  0  0  0  0  0  0  0  0  0
  -10.1769   -5.5476   32.1997 C   0  0  0  0  0  0  0  0  0  0  0  0
  -10.3107   -4.7987   34.4494 C   0  0  0  0  0  0  0  0  0  0  0  0
  -10.2249   -4.5082   33.0944 C   0  0  0  0  0  0  0  0  0  0  0  0
  -10.1890   -3.1851   32.6579 O   0  0  0  0  0  0  0  0  0  0  0  0
  -11.7721  -11.3546   32.5452 N   0  0  0  0  0  0  0  0  0  0  0  0
  -11.3329  -12.5624   33.1960 C   0  0  2  0  0  0  0  0  0  0  0  0
  -11.4467  -13.7076   32.2391 C   0  0  0  0  0  0  0  0  0  0  0  0
  -10.9500  -13.3820   31.1006 O   0  0  0  0  0  0  0  0  0  0  0  0
  -11.9322  -12.7581   34.5173 C   0  0  0  0  0  0  0  0  0  0  0  0
  -13.3526  -12.3609   34.7341 C   0  0  0  0  0  0  0  0  0  0  0  0
  -13.9802  -11.5169   33.6644 C   0  0  0  0  0  0  0  0  0  0  0  0
  -15.3615  -11.0670   34.1339 C   0  0  0  0  0  0  0  0  0  0  0  0
  -15.9097  -12.0121   35.0745 N   0  0  0  0  0  4  0  0  0  0  0  0
  -11.9724  -14.9694   32.3979 N   0  0  0  0  0  0  0  0  0  0  0  0
  -11.5706  -16.0316   33.2973 C   0  0  2  0  0  0  0  0  0  0  0  0
  -10.2821  -16.6732   32.9409 C   0  0  0  0  0  0  0  0  0  0  0  0
   -9.6784  -17.2426   33.9351 O   0  0  0  0  0  0  0  0  0  0  0  0
  -12.6260  -17.1323   33.3373 C   0  0  0  0  0  0  0  0  0  0  0  0
  -13.5261  -16.9432   32.2736 O   0  0  0  0  0  0  0  0  0  0  0  0
   -9.6658  -16.7310   31.7049 N   0  0  0  0  0  0  0  0  0  0  0  0
  -10.1107  -17.3396   30.4639 C   0  0  2  0  0  0  0  0  0  0  0  0
   -9.2791  -18.4781   30.0307 C   0  0  0  0  0  0  0  0  0  0  0  0
   -9.7385  -19.6259   30.4523 O   0  0  0  0  0  0  0  0  0  0  0  0
  -10.2995  -16.2935   29.3791 C   0  0  0  0  0  0  0  0  0  0  0  0
  -11.6381  -16.4829   28.7291 C   0  0  0  0  0  0  0  0  0  0  0  0
  -12.6768  -17.0935   29.6364 C   0  0  0  0  0  0  0  0  0  0  0  0
  -11.9132  -17.6169   30.8604 C   0  0  0  0  0  0  0  0  0  0  0  0
  -12.8788  -18.2098   31.7839 N   0  0  0  0  0  4  0  0  0  0  0  0
   -8.1178  -18.5061   29.2665 N   0  0  0  0  0  0  0  0  0  0  0  0
   -6.8978  -17.7158   29.4161 C   0  0  2  0  0  0  0  0  0  0  0  0
   -6.5095  -17.0085   28.1622 C   0  0  0  0  0  0  0  0  0  0  0  0
   -7.5324  -16.5282   27.5315 O   0  0  0  0  0  0  0  0  0  0  0  0
   -5.9631  -18.9103   29.6645 C   0  0  0  0  0  0  0  0  0  0  0  0
   -6.3332  -19.8044   28.5003 C   0  0  0  0  0  0  0  0  0  0  0  0
   -7.7531  -19.3675   28.1183 C   0  0  0  0  0  0  0  0  0  0  0  0
   -5.2796  -16.7860   27.5751 N   0  0  0  0  0  0  0  0  0  0  0  0
   -4.0864  -16.0995   27.9699 C   0  0  2  0  0  0  0  0  0  0  0  0
   -4.0101  -15.4312   29.2448 C   0  0  0  0  0  0  0  0  0  0  0  0
   -4.6442  -16.0128   30.2134 O   0  0  0  0  0  0  0  0  0  0  0  0
   -3.8698  -15.1719   26.7610 C   0  0  0  0  0  0  0  0  0  0  0  0
   -4.3554  -15.9592   25.5933 C   0  0  0  0  0  0  0  0  0  0  0  0
   -4.8352  -17.2517   26.2241 C   0  0  0  0  0  0  0  0  0  0  0  0
   -3.3601  -14.2426   29.6309 N   0  0  0  0  0  0  0  0  0  0  0  0
   -1.9825  -13.8841   29.7138 C   0  0  2  0  0  0  0  0  0  0  0  0
   -1.7402  -12.6160   29.0106 C   0  0  0  0  0  0  0  0  0  0  0  0
   -2.1456  -12.6488   27.7820 O   0  0  0  0  0  0  0  0  0  0  0  0
   -1.0035  -14.9162   29.2228 C   0  0  2  0  0  0  0  0  0  0  0  0
    0.4369  -14.5567   29.5152 C   0  0  0  0  0  0  0  0  0  0  0  0
   -1.1062  -14.8986   27.6878 C   0  0  0  0  0  0  0  0  0  0  0  0
    0.8194  -13.2296   28.9019 C   0  0  0  0  0  0  0  0  0  0  0  0
   -1.1665  -11.4282   29.4264 N   0  0  0  0  0  0  0  0  0  0  0  0
   -1.4839  -10.5005   30.4819 C   0  0  2  0  0  0  0  0  0  0  0  0
   -1.0674  -10.8801   31.8397 C   0  0  0  0  0  0  0  0  0  0  0  0
   -1.8904  -11.6714   32.4495 O   0  0  0  0  0  0  0  0  0  0  0  0
   -2.9827  -10.1314   30.4493 C   0  0  0  0  0  0  0  0  0  0  0  0
   -3.8695  -10.6217   31.9120 S   0  0  0  0  0  0  0  0  0  0  0  0
    0.0610  -10.5307   32.5865 N   0  0  0  0  0  0  0  0  0  0  0  0
    1.4650  -10.5653   32.2465 C   0  0  2  0  0  0  0  0  0  0  0  0
    2.2674   -9.4901   32.8554 C   0  0  0  0  0  0  0  0  0  0  0  0
    3.0666   -9.9063   33.8049 O   0  0  0  0  0  0  0  0  0  0  0  0
    1.7231  -10.8356   30.8015 C   0  0  0  0  0  0  0  0  0  0  0  0
    0.8142  -10.0179   29.9783 C   0  0  0  0  0  0  0  0  0  0  0  0
   -0.5546  -10.0599   30.0037 C   0  0  0  0  0  0  0  0  0  0  0  0
    1.3960   -9.1161   29.0986 C   0  0  0  0  0  0  0  0  0  0  0  0
   -1.2996   -9.2230   29.1728 C   0  0  0  0  0  0  0  0  0  0  0  0
    0.6890   -8.2819   28.2716 C   0  0  0  0  0  0  0  0  0  0  0  0
   -0.6891   -8.3377   28.3105 C   0  0  0  0  0  0  0  0  0  0  0  0
    2.3450   -8.1085   32.6174 N   0  0  0  0  0  0  0  0  0  0  0  0
    1.3259   -7.0985   32.6730 C   0  0  2  0  0  0  0  0  0  0  0  0
    0.0040   -7.4228   33.1353 C   0  0  0  0  0  0  0  0  0  0  0  0
   -0.8680   -7.6204   32.2066 O   0  0  0  0  0  0  0  0  0  0  0  0
    1.3982   -6.5938   31.2363 C   0  0  0  0  0  0  0  0  0  0  0  0
    2.9221   -6.3653   31.1894 C   0  0  0  0  0  0  0  0  0  0  0  0
    3.5087   -7.2353   32.2718 C   0  0  0  0  0  0  0  0  0  0  0  0
   -0.3603   -7.5261   34.4963 N   0  0  0  0  0  0  0  0  0  0  0  0
    0.0102   -6.6919   35.5862 C   0  0  2  0  0  0  0  0  0  0  0  0
   -0.0154   -5.2321   35.3382 C   0  0  0  0  0  0  0  0  0  0  0  0
    1.1043   -4.6277   35.3516 O   0  0  0  0  0  0  0  0  0  0  0  0
    1.3502   -7.1014   36.2051 C   0  0  0  0  0  0  0  0  0  0  0  0
    1.4840   -6.5522   37.5766 C   0  0  0  0  0  0  0  0  0  0  0  0
    2.1014   -7.2985   38.5694 O   0  0  0  0  0  0  0  0  0  0  0  0
    1.0530   -5.4150   37.8857 O   0  0  0  0  0  0  0  0  0  0  0  0
   -2.1893   -3.6794   34.7135 O   0  0  0  0  0  0  0  0  0  0  0  0
   -9.3469   -3.4810   39.1170 H   0  0  0  0  0  0  0  0  0  0  0  0
  1  2  1  0
  1106  1  0
  1112  1  0
  2  3  1  0
  2112  1  6
  3  4  2  0
  3  5  1  0
  5  6  1  0
  6  7  1  0
  6  9  1  6
  7  8  2  0
  7 16  1  0
  9 10  1  0
 10 11  1  0
 11 12  1  0
 12 13  1  0
 13 14  1  0
 13 15  2  0
 17 16  1  1
 17 18  1  0
 17 20  1  0
 18 19  2  0
 18 22  1  0
 20 21  1  0
 21 85  1  0
 22 23  1  0
 23 24  1  0
 23 26  1  6
 24 25  2  0
 24 34  1  0
 26 27  1  0
 27 28  2  0
 27 29  1  0
 28 30  1  0
 29 31  2  0
 30 32  2  0
 31 32  1  0
 32 33  1  0
 34 35  1  0
 35 36  1  0
 35 38  1  1
 36 37  2  0
 36 43  1  0
 38 39  1  0
 39 40  1  0
 40 41  1  0
 41 42  1  0
 43 44  1  0
 44 45  1  0
 44 47  1  6
 45 46  2  0
 45 49  1  0
 47 48  1  0
 49 50  1  0
 50 51  1  0
 50 53  1  6
 51 52  2  0
 51 58  1  0
 53 54  1  0
 54 55  1  0
 55 56  1  0
 56 57  1  0
 58 59  1  0
 58 64  1  0
 59 60  1  0
 59 62  1  6
 60 61  2  0
 60 65  1  0
 62 63  1  0
 63 64  1  0
 65 66  1  0
 65 71  1  0
 66 67  1  0
 66 69  1  6
 67 68  2  0
 67 72  1  0
 69 70  1  0
 70 71  1  0
 73 72  1  6
 73 74  1  0
 73 76  1  0
 74 75  2  0
 74 80  1  0
 76 77  1  0
 76 78  1  6
 77 79  1  0
 81 80  1  6
 81 82  1  0
 81 84  1  0
 82 83  2  0
 82 86  1  0
 84 85  1  0
 86 87  1  0
 87 88  1  0
 87 90  1  6
 88 89  2  0
 88 97  1  0
 90 91  1  0
 91 92  2  0
 91 93  1  0
 92 94  1  0
 93 95  2  0
 94 96  2  0
 95 96  1  0
 97 98  1  0
 97103  1  0
 98 99  1  0
 98101  1  6
 99100  2  0
 99104  1  0
101102  1  0
102103  1  0
104105  1  0
105106  1  0
105108  1  6
106107  2  0
108109  1  0
109110  1  0
109111  2  0
 15113  1  0
M  CHG  2  42   1  57   1
M  END
$$$$
