
     RDKit          3D

113120  0  0  0  0  0  0  0  0999 V2000
    1.3230   -6.1447   34.6706 N   0  0  0  0  0  0  0  0  0  0  0  0
    0.0520   -5.7039   34.8878 C   0  0  2  0  0  0  0  0  0  0  0  0
   -1.0333   -6.5849   34.3905 C   0  0  0  0  0  0  0  0  0  0  0  0
   -0.7484   -7.0293   33.1888 O   0  0  0  0  0  0  0  0  0  0  0  0
   -2.2258   -6.9810   34.9830 N   0  0  0  0  0  0  0  0  0  0  0  0
   -3.5581   -6.4671   35.0405 C   0  0  2  0  0  0  0  0  0  0  0  0
   -4.5186   -7.5784   34.6950 C   0  0  0  0  0  0  0  0  0  0  0  0
   -4.3884   -8.5793   35.4966 O   0  0  0  0  0  0  0  0  0  0  0  0
   -3.8842   -5.1933   34.3908 C   0  0  0  0  0  0  0  0  0  0  0  0
   -2.9975   -4.0234   34.7147 C   0  0  0  0  0  0  0  0  0  0  0  0
   -3.4549   -3.3216   35.9878 C   0  0  0  0  0  0  0  0  0  0  0  0
   -4.5025   -4.0759   36.6316 N   0  0  0  0  0  0  0  0  0  0  0  0
   -5.2875   -3.5230   37.6664 C   0  0  0  0  0  0  0  0  0  0  0  0
   -5.0363   -2.1664   38.0187 N   0  0  0  0  0  0  0  0  0  0  0  0
   -6.1786   -4.2383   38.2414 N   0  0  0  0  0  0  0  0  0  0  0  0
   -5.4562   -7.6533   33.6963 N   0  0  0  0  0  0  0  0  0  0  0  0
   -5.3523   -7.4282   32.2715 C   0  0  2  0  0  0  0  0  0  0  0  0
   -6.4191   -8.1271   31.5092 C   0  0  0  0  0  0  0  0  0  0  0  0
   -6.0810   -9.2929   31.0606 O   0  0  0  0  0  0  0  0  0  0  0  0
   -3.9888   -7.9180   31.7436 C   0  0  0  0  0  0  0  0  0  0  0  0
   -3.4496   -9.2239   32.8317 S   0  0  0  0  0  0  0  0  0  0  0  0
   -7.7235   -7.6635   31.2319 N   0  0  0  0  0  0  0  0  0  0  0  0
   -8.7528   -7.2593   32.1357 C   0  0  2  0  0  0  0  0  0  0  0  0
  -10.0266   -7.1918   31.3517 C   0  0  0  0  0  0  0  0  0  0  0  0
  -10.4135   -6.0866   30.8685 O   0  0  0  0  0  0  0  0  0  0  0  0
   -8.5360   -5.9938   32.8593 C   0  0  0  0  0  0  0  0  0  0  0  0
   -7.4289   -5.1570   32.3809 C   0  0  0  0  0  0  0  0  0  0  0  0
   -7.2649   -3.8499   32.7019 C   0  0  0  0  0  0  0  0  0  0  0  0
   -6.4661   -5.7520   31.5670 C   0  0  0  0  0  0  0  0  0  0  0  0
   -6.1572   -3.1168   32.2306 C   0  0  0  0  0  0  0  0  0  0  0  0
   -5.3710   -5.0480   31.0939 C   0  0  0  0  0  0  0  0  0  0  0  0
   -5.2134   -3.7103   31.4305 C   0  0  0  0  0  0  0  0  0  0  0  0
   -4.1160   -2.9899   30.9622 O   0  0  0  0  0  0  0  0  0  0  0  0
  -10.8180   -8.3379   31.1282 N   0  0  0  0  0  0  0  0  0  0  0  0
  -11.0488   -9.4290   32.0399 C   0  0  2  0  0  0  0  0  0  0  0  0
  -11.5576  -10.6111   31.2757 C   0  0  0  0  0  0  0  0  0  0  0  0
  -10.8413  -10.7996   30.2268 O   0  0  0  0  0  0  0  0  0  0  0  0
  -11.8181   -9.0408   33.2234 C   0  0  0  0  0  0  0  0  0  0  0  0
  -11.2252   -9.2544   34.5745 C   0  0  0  0  0  0  0  0  0  0  0  0
   -9.9877   -8.4682   34.8920 C   0  0  0  0  0  0  0  0  0  0  0  0
   -9.8055   -8.4200   36.4071 C   0  0  0  0  0  0  0  0  0  0  0  0
  -10.8789   -7.6807   37.0232 N   0  0  0  0  0  4  0  0  0  0  0  0
  -12.6107  -11.4619   31.5224 N   0  0  0  0  0  0  0  0  0  0  0  0
  -12.8372  -12.3513   32.6432 C   0  0  2  0  0  0  0  0  0  0  0  0
  -11.9461  -13.5363   32.6670 C   0  0  0  0  0  0  0  0  0  0  0  0
  -11.7822  -14.0553   33.8421 O   0  0  0  0  0  0  0  0  0  0  0  0
  -14.2727  -12.8673   32.6405 C   0  0  0  0  0  0  0  0  0  0  0  0
  -14.3197  -14.0882   31.9442 O   0  0  0  0  0  0  0  0  0  0  0  0
  -11.2859  -14.1342   31.6098 N   0  0  0  0  0  0  0  0  0  0  0  0
  -11.8129  -14.7735   30.4173 C   0  0  2  0  0  0  0  0  0  0  0  0
  -11.5417  -16.2217   30.3523 C   0  0  0  0  0  0  0  0  0  0  0  0
  -12.5146  -16.9386   30.8482 O   0  0  0  0  0  0  0  0  0  0  0  0
  -11.3840  -14.0306   29.1640 C   0  0  0  0  0  0  0  0  0  0  0  0
  -12.4696  -13.0824   28.7484 C   0  0  0  0  0  0  0  0  0  0  0  0
  -13.8480  -13.4965   29.1995 C   0  0  0  0  0  0  0  0  0  0  0  0
  -13.7167  -14.9477   29.6809 C   0  0  0  0  0  0  0  0  0  0  0  0
  -15.0365  -15.4110   30.1055 N   0  0  0  0  0  4  0  0  0  0  0  0
  -10.4395  -16.9105   29.8581 N   0  0  0  0  0  0  0  0  0  0  0  0
   -9.0202  -16.6914   30.1274 C   0  0  2  0  0  0  0  0  0  0  0  0
   -8.2142  -16.5266   28.8838 C   0  0  0  0  0  0  0  0  0  0  0  0
   -8.8307  -15.8255   27.9875 O   0  0  0  0  0  0  0  0  0  0  0  0
   -8.7607  -18.0721   30.7505 C   0  0  0  0  0  0  0  0  0  0  0  0
   -9.3592  -18.9753   29.6933 C   0  0  0  0  0  0  0  0  0  0  0  0
  -10.3749  -18.0882   28.9623 C   0  0  0  0  0  0  0  0  0  0  0  0
   -6.9585  -16.9826   28.5346 N   0  0  0  0  0  0  0  0  0  0  0  0
   -5.6376  -16.7858   29.0516 C   0  0  2  0  0  0  0  0  0  0  0  0
   -5.4136  -15.9323   30.1915 C   0  0  0  0  0  0  0  0  0  0  0  0
   -6.3478  -15.9509   31.0890 O   0  0  0  0  0  0  0  0  0  0  0  0
   -4.8892  -16.3454   27.7809 C   0  0  0  0  0  0  0  0  0  0  0  0
   -5.5414  -17.1073   26.6794 C   0  0  0  0  0  0  0  0  0  0  0  0
   -6.6215  -17.8937   27.3962 C   0  0  0  0  0  0  0  0  0  0  0  0
   -4.3457  -15.0699   30.5081 N   0  0  0  0  0  0  0  0  0  0  0  0
   -2.9742  -15.3112   30.8145 C   0  0  2  0  0  0  0  0  0  0  0  0
   -2.1070  -14.4640   29.9828 C   0  0  0  0  0  0  0  0  0  0  0  0
   -2.3406  -14.6115   28.7184 O   0  0  0  0  0  0  0  0  0  0  0  0
   -2.5179  -16.7413   30.7069 C   0  0  2  0  0  0  0  0  0  0  0  0
   -3.6631  -17.7287   30.6525 C   0  0  0  0  0  0  0  0  0  0  0  0
   -1.7954  -17.0543   32.0287 C   0  0  0  0  0  0  0  0  0  0  0  0
   -4.9279  -17.1542   31.2472 C   0  0  0  0  0  0  0  0  0  0  0  0
   -1.1104  -13.5636   30.3125 N   0  0  0  0  0  0  0  0  0  0  0  0
   -1.0927  -12.3692   31.1179 C   0  0  2  0  0  0  0  0  0  0  0  0
   -1.0503  -12.5582   32.5752 C   0  0  0  0  0  0  0  0  0  0  0  0
   -2.2054  -12.7661   33.1209 O   0  0  0  0  0  0  0  0  0  0  0  0
   -2.2487  -11.4268   30.7189 C   0  0  0  0  0  0  0  0  0  0  0  0
   -3.4215  -11.1439   32.0267 S   0  0  0  0  0  0  0  0  0  0  0  0
    0.0210  -12.5478   33.4726 N   0  0  0  0  0  0  0  0  0  0  0  0
    1.2866  -13.2443   33.4391 C   0  0  2  0  0  0  0  0  0  0  0  0
    2.4127  -12.4929   34.0203 C   0  0  0  0  0  0  0  0  0  0  0  0
    2.8238  -12.9696   35.1680 O   0  0  0  0  0  0  0  0  0  0  0  0
    1.5576  -13.9280   32.1402 C   0  0  0  0  0  0  0  0  0  0  0  0
    0.9924  -13.1304   31.0373 C   0  0  0  0  0  0  0  0  0  0  0  0
    1.6891  -12.2896   30.2105 C   0  0  0  0  0  0  0  0  0  0  0  0
   -0.3715  -13.2439   30.8085 C   0  0  0  0  0  0  0  0  0  0  0  0
    1.0300  -11.5950   29.1960 C   0  0  0  0  0  0  0  0  0  0  0  0
   -1.0448  -12.5743   29.8195 C   0  0  0  0  0  0  0  0  0  0  0  0
   -0.3269  -11.7315   28.9959 C   0  0  0  0  0  0  0  0  0  0  0  0
    3.1323  -11.3683   33.5857 N   0  0  0  0  0  0  0  0  0  0  0  0
    2.6802  -10.0430   33.2681 C   0  0  2  0  0  0  0  0  0  0  0  0
    1.3113   -9.6671   33.4941 C   0  0  0  0  0  0  0  0  0  0  0  0
    0.5562   -9.6940   32.4495 O   0  0  0  0  0  0  0  0  0  0  0  0
    3.1359   -9.9669   31.8153 C   0  0  0  0  0  0  0  0  0  0  0  0
    4.5929  -10.4139   32.0472 C   0  0  0  0  0  0  0  0  0  0  0  0
    4.5959  -11.1689   33.3520 C   0  0  0  0  0  0  0  0  0  0  0  0
    0.7872   -9.2866   34.7495 N   0  0  0  0  0  0  0  0  0  0  0  0
    1.3675   -8.4537   35.7447 C   0  0  2  0  0  0  0  0  0  0  0  0
    2.0322   -7.2196   35.2668 C   0  0  0  0  0  0  0  0  0  0  0  0
    3.2944   -7.1537   35.4137 O   0  0  0  0  0  0  0  0  0  0  0  0
    2.2978   -9.2278   36.6836 C   0  0  0  0  0  0  0  0  0  0  0  0
    2.8912   -8.3223   37.6977 C   0  0  0  0  0  0  0  0  0  0  0  0
    2.7339   -6.9489   37.5835 O   0  0  0  0  0  0  0  0  0  0  0  0
    3.5449   -8.7542   38.6779 O   0  0  0  0  0  0  0  0  0  0  0  0
    0.8807   -5.0950   33.9680 O   0  0  0  0  0  0  0  0  0  0  0  0
   -6.1545   -4.4098   39.2541 H   0  0  0  0  0  0  0  0  0  0  0  0
  1  2  1  0
  1106  1  0
  1112  1  0
  2  3  1  0
  2112  1  6
  3  4  2  0
  3  5  1  0
  5  6  1  0
  6  7  1  0
  6  9  1  6
  7  8  2  0
  7 16  1  0
  9 10  1  0
 10 11  1  0
 11 12  1  0
 12 13  1  0
 13 14  1  0
 13 15  2  0
 17 16  1  1
 17 18  1  0
 17 20  1  0
 18 19  2  0
 18 22  1  0
 20 21  1  0
 21 85  1  0
 22 23  1  0
 23 24  1  0
 23 26  1  6
 24 25  2  0
 24 34  1  0
 26 27  1  0
 27 28  2  0
 27 29  1  0
 28 30  1  0
 29 31  2  0
 30 32  2  0
 31 32  1  0
 32 33  1  0
 34 35  1  0
 35 36  1  0
 35 38  1  1
 36 37  2  0
 36 43  1  0
 38 39  1  0
 39 40  1  0
 40 41  1  0
 41 42  1  0
 43 44  1  0
 44 45  1  0
 44 47  1  6
 45 46  2  0
 45 49  1  0
 47 48  1  0
 49 50  1  0
 50 51  1  0
 50 53  1  6
 51 52  2  0
 51 58  1  0
 53 54  1  0
 54 55  1  0
 55 56  1  0
 56 57  1  0
 58 59  1  0
 58 64  1  0
 59 60  1  0
 59 62  1  6
 60 61  2  0
 60 65  1  0
 62 63  1  0
 63 64  1  0
 65 66  1  0
 65 71  1  0
 66 67  1  0
 66 69  1  6
 67 68  2  0
 67 72  1  0
 69 70  1  0
 70 71  1  0
 73 72  1  6
 73 74  1  0
 73 76  1  0
 74 75  2  0
 74 80  1  0
 76 77  1  0
 76 78  1  1
 77 79  1  0
 81 80  1  6
 81 82  1  0
 81 84  1  0
 82 83  2  0
 82 86  1  0
 84 85  1  0
 86 87  1  0
 87 88  1  0
 87 90  1  6
 88 89  2  0
 88 97  1  0
 90 91  1  0
 91 92  2  0
 91 93  1  0
 92 94  1  0
 93 95  2  0
 94 96  2  0
 95 96  1  0
 97 98  1  0
 97103  1  0
 98 99  1  0
 98101  1  6
 99100  2  0
 99104  1  0
101102  1  0
102103  1  0
104105  1  0
105106  1  0
105108  1  6
106107  2  0
108109  1  0
109110  1  0
109111  2  0
 15113  1  0
M  CHG  2  42   1  57   1
M  END
$$$$
