
     RDKit          3D

113120  0  0  0  0  0  0  0  0999 V2000
   -0.8417   -4.8831   35.4140 N   0  0  0  0  0  0  0  0  0  0  0  0
   -2.1632   -4.9437   35.7407 C   0  0  2  0  0  0  0  0  0  0  0  0
   -2.9200   -6.0854   35.1707 C   0  0  0  0  0  0  0  0  0  0  0  0
   -2.6042   -6.2601   33.9087 O   0  0  0  0  0  0  0  0  0  0  0  0
   -3.8497   -6.9397   35.7502 N   0  0  0  0  0  0  0  0  0  0  0  0
   -5.2673   -6.9354   35.9314 C   0  0  2  0  0  0  0  0  0  0  0  0
   -5.8156   -8.2649   35.4748 C   0  0  0  0  0  0  0  0  0  0  0  0
   -5.2827   -9.2421   36.1248 O   0  0  0  0  0  0  0  0  0  0  0  0
   -6.0638   -5.7906   35.4773 C   0  0  0  0  0  0  0  0  0  0  0  0
   -5.5149   -4.4239   35.7783 C   0  0  0  0  0  0  0  0  0  0  0  0
   -5.8695   -3.9877   37.1948 C   0  0  0  0  0  0  0  0  0  0  0  0
   -5.9484   -2.5497   37.2754 N   0  0  0  0  0  0  0  0  0  0  0  0
   -5.6251   -1.8533   38.4601 C   0  0  0  0  0  0  0  0  0  0  0  0
   -6.6447   -1.7428   39.4478 N   0  0  0  0  0  0  0  0  0  0  0  0
   -4.4559   -1.3557   38.6074 N   0  0  0  0  0  0  0  0  0  0  0  0
   -6.7528   -8.5478   34.5138 N   0  0  0  0  0  0  0  0  0  0  0  0
   -6.8546   -8.1378   33.1307 C   0  0  2  0  0  0  0  0  0  0  0  0
   -7.6791   -9.0732   32.3226 C   0  0  0  0  0  0  0  0  0  0  0  0
   -7.0024   -9.9867   31.7043 O   0  0  0  0  0  0  0  0  0  0  0  0
   -5.4564   -8.0546   32.4859 C   0  0  0  0  0  0  0  0  0  0  0  0
   -4.4119   -9.2050   33.3610 S   0  0  0  0  0  0  0  0  0  0  0  0
   -9.0820   -9.0673   32.1645 N   0  0  0  0  0  0  0  0  0  0  0  0
  -10.1061   -9.1564   33.1560 C   0  0  2  0  0  0  0  0  0  0  0  0
  -11.3883   -9.4495   32.4405 C   0  0  0  0  0  0  0  0  0  0  0  0
  -12.1698   -8.5019   32.1303 O   0  0  0  0  0  0  0  0  0  0  0  0
  -10.2741   -7.9877   34.0379 C   0  0  0  0  0  0  0  0  0  0  0  0
  -10.3740   -6.6837   33.3713 C   0  0  0  0  0  0  0  0  0  0  0  0
  -10.0376   -6.4593   32.0770 C   0  0  0  0  0  0  0  0  0  0  0  0
  -10.8755   -5.6114   34.1075 C   0  0  0  0  0  0  0  0  0  0  0  0
  -10.1913   -5.1854   31.4941 C   0  0  0  0  0  0  0  0  0  0  0  0
  -11.0335   -4.3523   33.5523 C   0  0  0  0  0  0  0  0  0  0  0  0
  -10.6865   -4.1353   32.2255 C   0  0  0  0  0  0  0  0  0  0  0  0
  -10.8408   -2.8737   31.6537 O   0  0  0  0  0  0  0  0  0  0  0  0
  -11.7560  -10.7662   32.0931 N   0  0  0  0  0  0  0  0  0  0  0  0
  -11.5207  -11.9664   32.8541 C   0  0  2  0  0  0  0  0  0  0  0  0
  -11.6579  -13.1552   31.9552 C   0  0  0  0  0  0  0  0  0  0  0  0
  -11.0130  -12.9585   30.8624 O   0  0  0  0  0  0  0  0  0  0  0  0
  -12.2721  -12.0116   34.1098 C   0  0  0  0  0  0  0  0  0  0  0  0
  -11.5560  -11.7537   35.3917 C   0  0  0  0  0  0  0  0  0  0  0  0
  -10.1610  -11.2136   35.2797 C   0  0  0  0  0  0  0  0  0  0  0  0
   -9.9972  -10.5408   33.9190 C   0  0  0  0  0  0  0  0  0  0  0  0
   -8.6212  -10.1709   33.6990 N   0  0  0  0  0  4  0  0  0  0  0  0
  -12.3312  -14.3435   32.1242 N   0  0  0  0  0  0  0  0  0  0  0  0
  -12.1430  -15.3788   33.1198 C   0  0  2  0  0  0  0  0  0  0  0  0
  -10.9018  -16.1708   32.9441 C   0  0  0  0  0  0  0  0  0  0  0  0
  -10.4702  -16.7313   34.0289 O   0  0  0  0  0  0  0  0  0  0  0  0
  -13.3100  -16.3610   33.1036 C   0  0  0  0  0  0  0  0  0  0  0  0
  -13.9383  -16.3056   31.8466 O   0  0  0  0  0  0  0  0  0  0  0  0
  -10.1700  -16.3734   31.7890 N   0  0  0  0  0  0  0  0  0  0  0  0
  -10.5466  -17.0147   30.5418 C   0  0  2  0  0  0  0  0  0  0  0  0
   -9.8030  -18.2583   30.2669 C   0  0  0  0  0  0  0  0  0  0  0  0
  -10.4257  -19.3227   30.6977 O   0  0  0  0  0  0  0  0  0  0  0  0
  -10.5067  -16.0293   29.3868 C   0  0  0  0  0  0  0  0  0  0  0  0
  -10.6776  -14.6349   29.9127 C   0  0  0  0  0  0  0  0  0  0  0  0
  -11.2485  -14.5738   31.3074 C   0  0  0  0  0  0  0  0  0  0  0  0
  -11.6100  -13.1025   31.5518 C   0  0  0  0  0  0  0  0  0  0  0  0
  -12.6800  -13.0525   32.5464 N   0  0  0  0  0  4  0  0  0  0  0  0
   -8.5783  -18.4555   29.6385 N   0  0  0  0  0  0  0  0  0  0  0  0
   -7.3020  -17.7856   29.8783 C   0  0  2  0  0  0  0  0  0  0  0  0
   -6.7107  -17.2066   28.6380 C   0  0  0  0  0  0  0  0  0  0  0  0
   -7.6041  -16.6675   27.8724 O   0  0  0  0  0  0  0  0  0  0  0  0
   -6.5336  -19.0499   30.2941 C   0  0  0  0  0  0  0  0  0  0  0  0
   -6.8753  -19.9772   29.1473 C   0  0  0  0  0  0  0  0  0  0  0  0
   -8.1917  -19.4241   28.5870 C   0  0  0  0  0  0  0  0  0  0  0  0
   -5.4095  -17.1503   28.1791 N   0  0  0  0  0  0  0  0  0  0  0  0
   -4.1965  -16.5643   28.6649 C   0  0  2  0  0  0  0  0  0  0  0  0
   -4.1812  -15.8240   29.9017 C   0  0  0  0  0  0  0  0  0  0  0  0
   -4.9722  -16.2720   30.8248 O   0  0  0  0  0  0  0  0  0  0  0  0
   -3.7557  -15.7462   27.4381 C   0  0  0  0  0  0  0  0  0  0  0  0
   -4.1996  -16.5559   26.2691 C   0  0  0  0  0  0  0  0  0  0  0  0
   -4.8799  -17.7479   26.9133 C   0  0  0  0  0  0  0  0  0  0  0  0
   -3.4498  -14.6848   30.2911 N   0  0  0  0  0  0  0  0  0  0  0  0
   -2.0576  -14.4640   30.5060 C   0  0  2  0  0  0  0  0  0  0  0  0
   -1.6071  -13.2768   29.7649 C   0  0  0  0  0  0  0  0  0  0  0  0
   -1.8835  -13.3499   28.5028 O   0  0  0  0  0  0  0  0  0  0  0  0
   -1.1507  -15.6210   30.1840 C   0  0  2  0  0  0  0  0  0  0  0  0
   -0.5086  -15.5115   28.8183 C   0  0  0  0  0  0  0  0  0  0  0  0
   -2.0615  -16.8573   30.0889 C   0  0  0  0  0  0  0  0  0  0  0  0
    0.8953  -16.0705   28.8120 C   0  0  0  0  0  0  0  0  0  0  0  0
   -0.9543  -12.1287   30.1755 N   0  0  0  0  0  0  0  0  0  0  0  0
   -1.2772  -11.1053   31.1366 C   0  0  2  0  0  0  0  0  0  0  0  0
   -1.0482  -11.4342   32.5510 C   0  0  0  0  0  0  0  0  0  0  0  0
   -2.0113  -12.0950   33.1087 O   0  0  0  0  0  0  0  0  0  0  0  0
   -2.7156  -10.5882   30.9181 C   0  0  0  0  0  0  0  0  0  0  0  0
   -3.7978  -10.8870   32.2984 S   0  0  0  0  0  0  0  0  0  0  0  0
    0.0276  -11.1527   33.3975 N   0  0  0  0  0  0  0  0  0  0  0  0
    1.4472  -11.3529   33.2175 C   0  0  2  0  0  0  0  0  0  0  0  0
    2.2938  -10.3271   33.8511 C   0  0  0  0  0  0  0  0  0  0  0  0
    2.9398  -10.7585   34.9046 O   0  0  0  0  0  0  0  0  0  0  0  0
    1.8235  -11.7437   31.8269 C   0  0  0  0  0  0  0  0  0  0  0  0
    0.9782  -11.0138   30.8652 C   0  0  0  0  0  0  0  0  0  0  0  0
    1.1000  -11.0414   29.5012 C   0  0  0  0  0  0  0  0  0  0  0  0
   -0.0407  -10.2292   31.3863 C   0  0  0  0  0  0  0  0  0  0  0  0
    0.2255  -10.3050   28.7018 C   0  0  0  0  0  0  0  0  0  0  0  0
   -0.9142   -9.4962   30.6252 C   0  0  0  0  0  0  0  0  0  0  0  0
   -0.7768   -9.5359   29.2528 C   0  0  0  0  0  0  0  0  0  0  0  0
    2.5453   -8.9795   33.5472 N   0  0  0  0  0  0  0  0  0  0  0  0
    1.6417   -7.8694   33.4339 C   0  0  2  0  0  0  0  0  0  0  0  0
    0.2515   -8.0256   33.7644 C   0  0  0  0  0  0  0  0  0  0  0  0
   -0.5353   -8.1946   32.7572 O   0  0  0  0  0  0  0  0  0  0  0  0
    1.9177   -7.4714   31.9883 C   0  0  0  0  0  0  0  0  0  0  0  0
    3.4539   -7.4033   32.0978 C   0  0  0  0  0  0  0  0  0  0  0  0
    3.8267   -8.2545   33.2848 C   0  0  0  0  0  0  0  0  0  0  0  0
   -0.2616   -8.0004   35.0802 N   0  0  0  0  0  0  0  0  0  0  0  0
    0.0818   -7.1377   36.1567 C   0  0  2  0  0  0  0  0  0  0  0  0
    0.2407   -5.7025   35.8273 C   0  0  0  0  0  0  0  0  0  0  0  0
    1.4119   -5.2160   35.9311 O   0  0  0  0  0  0  0  0  0  0  0  0
    1.2975   -7.6396   36.9417 C   0  0  0  0  0  0  0  0  0  0  0  0
    2.1918   -6.5119   37.3009 C   0  0  0  0  0  0  0  0  0  0  0  0
    1.8726   -5.2184   36.9148 O   0  0  0  0  0  0  0  0  0  0  0  0
    3.2498   -6.6804   37.9543 O   0  0  0  0  0  0  0  0  0  0  0  0
   -1.6747   -3.9813   34.8812 O   0  0  0  0  0  0  0  0  0  0  0  0
   -4.0584   -0.7107   37.9134 H   0  0  0  0  0  0  0  0  0  0  0  0
  1  2  1  0
  1106  1  0
  1112  1  0
  2  3  1  0
  2112  1  6
  3  4  2  0
  3  5  1  0
  5  6  1  0
  6  7  1  0
  6  9  1  6
  7  8  2  0
  7 16  1  0
  9 10  1  0
 10 11  1  0
 11 12  1  0
 12 13  1  0
 13 14  1  0
 13 15  2  0
 17 16  1  1
 17 18  1  0
 17 20  1  0
 18 19  2  0
 18 22  1  0
 20 21  1  0
 21 85  1  0
 22 23  1  0
 23 24  1  0
 23 26  1  6
 24 25  2  0
 24 34  1  0
 26 27  1  0
 27 28  2  0
 27 29  1  0
 28 30  1  0
 29 31  2  0
 30 32  2  0
 31 32  1  0
 32 33  1  0
 34 35  1  0
 35 36  1  0
 35 38  1  1
 36 37  2  0
 36 43  1  0
 38 39  1  0
 39 40  1  0
 40 41  1  0
 41 42  1  0
 43 44  1  0
 44 45  1  0
 44 47  1  6
 45 46  2  0
 45 49  1  0
 47 48  1  0
 49 50  1  0
 50 51  1  0
 50 53  1  6
 51 52  2  0
 51 58  1  0
 53 54  1  0
 54 55  1  0
 55 56  1  0
 56 57  1  0
 58 59  1  0
 58 64  1  0
 59 60  1  0
 59 62  1  6
 60 61  2  0
 60 65  1  0
 62 63  1  0
 63 64  1  0
 65 66  1  0
 65 71  1  0
 66 67  1  0
 66 69  1  6
 67 68  2  0
 67 72  1  0
 69 70  1  0
 70 71  1  0
 73 72  1  6
 73 74  1  0
 73 76  1  0
 74 75  2  0
 74 80  1  0
 76 77  1  0
 76 78  1  6
 77 79  1  0
 81 80  1  6
 81 82  1  0
 81 84  1  0
 82 83  2  0
 82 86  1  0
 84 85  1  0
 86 87  1  0
 87 88  1  0
 87 90  1  6
 88 89  2  0
 88 97  1  0
 90 91  1  0
 91 92  2  0
 91 93  1  0
 92 94  1  0
 93 95  2  0
 94 96  2  0
 95 96  1  0
 97 98  1  0
 97103  1  0
 98 99  1  0
 98101  1  6
 99100  2  0
 99104  1  0
101102  1  0
102103  1  0
104105  1  0
105106  1  0
105108  1  6
106107  2  0
108109  1  0
109110  1  0
109111  2  0
 15113  1  0
M  CHG  2  42   1  57   1
M  END
$$$$
