
     RDKit          3D

 23 24  0  0  0  0  0  0  0  0999 V2000
   -7.4744  -35.2606  -15.8865 C   0  0  2  0  0  0  0  0  0  0  0  0
   -6.1985  -35.9168  -15.4352 C   0  0  1  0  0  0  0  0  0  0  0  0
   -5.7871  -36.9192  -16.4917 C   0  0  2  0  0  0  0  0  0  0  0  0
   -5.8572  -36.3642  -17.8763 C   0  0  1  0  0  0  0  0  0  0  0  0
   -6.2038  -34.9166  -17.8149 C   0  0  1  0  0  0  0  0  0  0  0  0
   -6.3345  -34.2869  -19.1882 C   0  0  0  0  0  0  0  0  0  0  0  0
   -5.2026  -35.0324  -15.0965 O   0  0  0  0  0  0  0  0  0  0  0  0
   -6.6742  -38.0134  -16.3656 O   0  0  0  0  0  0  0  0  0  0  0  0
   -4.5952  -36.5092  -18.4594 O   0  0  0  0  0  0  0  0  0  0  0  0
   -7.3360  -34.6200  -17.1152 O   0  0  0  0  0  0  0  0  0  0  0  0
   -7.4554  -33.4670  -19.2751 O   0  0  0  0  0  0  0  0  0  0  0  0
   -5.6711  -29.6382  -13.6912 O   0  0  0  0  0  0  0  0  0  0  0  0
   -5.2751  -30.5337  -15.8070 C   0  0  0  0  0  0  0  0  0  0  0  0
   -3.9799  -30.6387  -15.3015 O   0  0  0  0  0  0  0  0  0  0  0  0
   -6.2192  -30.5473  -14.6281 C   0  0  1  0  0  0  0  0  0  0  0  0
   -6.3019  -31.7557  -14.0068 O   0  0  0  0  0  0  0  0  0  0  0  0
   -7.5829  -30.0465  -14.9615 C   0  0  1  0  0  0  0  0  0  0  0  0
   -7.9406  -30.2373  -16.3100 O   0  0  0  0  0  0  0  0  0  0  0  0
   -8.4575  -30.9286  -14.1114 C   0  0  2  0  0  0  0  0  0  0  0  0
   -8.5199  -30.3697  -12.8427 O   0  0  0  0  0  0  0  0  0  0  0  0
   -7.6204  -32.1810  -14.0152 C   0  0  1  0  0  0  0  0  0  0  0  0
   -7.7949  -33.0686  -15.2238 C   0  0  0  0  0  0  0  0  0  0  0  0
   -7.9464  -34.4030  -14.9152 O   0  0  0  0  0  0  0  0  0  0  0  0
  1  2  1  0
  1 10  1  0
  1 23  1  1
  2  3  1  0
  2  7  1  6
  3  4  1  0
  3  8  1  6
  5  4  1  0
  4  9  1  1
  5  6  1  6
 10  5  1  0
  6 11  1  0
 15 12  1  1
 13 14  1  0
 15 13  1  0
 16 15  1  0
 17 15  1  0
 21 16  1  0
 17 18  1  6
 19 17  1  0
 19 20  1  1
 21 19  1  0
 21 22  1  6
 22 23  1  0
M  END
$$$$
