
     RDKit          3D

 23 24  0  0  0  0  0  0  0  0999 V2000
   -5.9575  -34.0502  -16.7455 C   0  0  2  0  0  0  0  0  0  0  0  0
   -7.4003  -34.3844  -17.0079 C   0  0  1  0  0  0  0  0  0  0  0  0
   -7.4454  -35.6420  -17.8486 C   0  0  2  0  0  0  0  0  0  0  0  0
   -6.5426  -36.7151  -17.3355 C   0  0  1  0  0  0  0  0  0  0  0  0
   -5.9321  -36.2784  -16.0488 C   0  0  1  0  0  0  0  0  0  0  0  0
   -4.9668  -37.3013  -15.4816 C   0  0  0  0  0  0  0  0  0  0  0  0
   -8.1754  -34.4502  -15.8750 O   0  0  0  0  0  0  0  0  0  0  0  0
   -7.0493  -35.2610  -19.1516 O   0  0  0  0  0  0  0  0  0  0  0  0
   -7.3188  -37.8556  -17.1112 O   0  0  0  0  0  0  0  0  0  0  0  0
   -5.2850  -35.0790  -16.0908 O   0  0  0  0  0  0  0  0  0  0  0  0
   -3.7182  -37.2256  -16.0911 O   0  0  0  0  0  0  0  0  0  0  0  0
   -7.3133  -29.1998  -12.7095 O   0  0  0  0  0  0  0  0  0  0  0  0
   -7.0619  -28.7710  -14.9873 C   0  0  0  0  0  0  0  0  0  0  0  0
   -6.3745  -29.3893  -16.0310 O   0  0  0  0  0  0  0  0  0  0  0  0
   -7.3889  -29.8391  -13.9706 C   0  0  1  0  0  0  0  0  0  0  0  0
   -6.4958  -30.8662  -13.9490 O   0  0  0  0  0  0  0  0  0  0  0  0
   -8.7767  -30.3674  -14.0989 C   0  0  1  0  0  0  0  0  0  0  0  0
   -9.2947  -30.2828  -15.4056 O   0  0  0  0  0  0  0  0  0  0  0  0
   -8.5916  -31.8216  -13.7573 C   0  0  2  0  0  0  0  0  0  0  0  0
   -8.6316  -31.9422  -12.3753 O   0  0  0  0  0  0  0  0  0  0  0  0
   -7.1651  -32.0547  -14.1923 C   0  0  1  0  0  0  0  0  0  0  0  0
   -7.0659  -32.3269  -15.6738 C   0  0  0  0  0  0  0  0  0  0  0  0
   -5.8546  -32.8576  -16.0608 O   0  0  0  0  0  0  0  0  0  0  0  0
  1  2  1  0
  1 10  1  0
  1 23  1  1
  2  3  1  0
  2  7  1  1
  3  4  1  0
  3  8  1  6
  5  4  1  0
  4  9  1  1
  5  6  1  6
 10  5  1  0
  6 11  1  0
 15 12  1  1
 13 14  1  0
 15 13  1  0
 16 15  1  0
 17 15  1  0
 21 16  1  0
 17 18  1  6
 19 17  1  0
 19 20  1  1
 21 19  1  0
 21 22  1  6
 22 23  1  0
M  END
$$$$
