
     RDKit          3D

 23 24  0  0  0  0  0  0  0  0999 V2000
   -6.2173  -33.9336  -16.7497 C   0  0  2  0  0  0  0  0  0  0  0  0
   -7.5059  -34.4895  -17.2909 C   0  0  1  0  0  0  0  0  0  0  0  0
   -7.2135  -35.8431  -17.9013 C   0  0  2  0  0  0  0  0  0  0  0  0
   -6.3739  -36.7077  -17.0196 C   0  0  1  0  0  0  0  0  0  0  0  0
   -6.1582  -36.0249  -15.7132 C   0  0  1  0  0  0  0  0  0  0  0  0
   -5.2772  -36.8245  -14.7729 C   0  0  0  0  0  0  0  0  0  0  0  0
   -8.5355  -34.5057  -16.3808 O   0  0  0  0  0  0  0  0  0  0  0  0
   -6.5350  -35.5908  -19.1163 O   0  0  0  0  0  0  0  0  0  0  0  0
   -7.0689  -37.9011  -16.8041 O   0  0  0  0  0  0  0  0  0  0  0  0
   -5.6398  -34.7664  -15.7946 O   0  0  0  0  0  0  0  0  0  0  0  0
   -3.9286  -36.6848  -15.0859 O   0  0  0  0  0  0  0  0  0  0  0  0
   -7.5519  -28.6568  -13.4046 O   0  0  0  0  0  0  0  0  0  0  0  0
   -8.8348  -29.3979  -15.2047 C   0  0  0  0  0  0  0  0  0  0  0  0
   -8.0524  -28.9697  -16.2763 O   0  0  0  0  0  0  0  0  0  0  0  0
   -7.8928  -29.8370  -14.1087 C   0  0  1  0  0  0  0  0  0  0  0  0
   -6.7299  -30.3743  -14.5689 O   0  0  0  0  0  0  0  0  0  0  0  0
   -8.5276  -30.7551  -13.1210 C   0  0  1  0  0  0  0  0  0  0  0  0
   -9.5866  -31.5143  -13.6550 O   0  0  0  0  0  0  0  0  0  0  0  0
   -7.3959  -31.6905  -12.7897 C   0  0  2  0  0  0  0  0  0  0  0  0
   -6.6271  -31.0942  -11.8000 O   0  0  0  0  0  0  0  0  0  0  0  0
   -6.5941  -31.6590  -14.0682 C   0  0  1  0  0  0  0  0  0  0  0  0
   -7.1520  -32.6031  -15.1056 C   0  0  0  0  0  0  0  0  0  0  0  0
   -6.4079  -32.6571  -16.2642 O   0  0  0  0  0  0  0  0  0  0  0  0
  1  2  1  0
  1 10  1  0
  1 23  1  1
  2  3  1  0
  2  7  1  1
  3  4  1  0
  3  8  1  6
  5  4  1  0
  4  9  1  1
  5  6  1  1
 10  5  1  0
  6 11  1  0
 15 12  1  1
 13 14  1  0
 15 13  1  0
 16 15  1  0
 17 15  1  0
 21 16  1  0
 17 18  1  6
 19 17  1  0
 19 20  1  1
 21 19  1  0
 21 22  1  6
 22 23  1  0
M  END
$$$$
