
     RDKit          3D

 23 24  0  0  0  0  0  0  0  0999 V2000
   -7.8451  -33.7615  -17.3419 C   0  0  2  0  0  0  0  0  0  0  0  0
   -8.4874  -35.0996  -17.0987 C   0  0  1  0  0  0  0  0  0  0  0  0
   -7.8354  -36.1076  -18.0202 C   0  0  2  0  0  0  0  0  0  0  0  0
   -6.3449  -36.0166  -18.0175 C   0  0  1  0  0  0  0  0  0  0  0  0
   -5.9093  -35.0209  -16.9986 C   0  0  1  0  0  0  0  0  0  0  0  0
   -4.4040  -34.8403  -16.9624 C   0  0  0  0  0  0  0  0  0  0  0  0
   -8.4984  -35.4846  -15.7795 O   0  0  0  0  0  0  0  0  0  0  0  0
   -8.3324  -35.8379  -19.3164 O   0  0  0  0  0  0  0  0  0  0  0  0
   -5.8405  -37.2743  -17.6746 O   0  0  0  0  0  0  0  0  0  0  0  0
   -6.4707  -33.7841  -17.1185 O   0  0  0  0  0  0  0  0  0  0  0  0
   -3.9231  -34.2811  -18.1423 O   0  0  0  0  0  0  0  0  0  0  0  0
   -6.1910  -31.0792  -11.8505 O   0  0  0  0  0  0  0  0  0  0  0  0
   -4.8351  -30.9679  -13.7438 C   0  0  0  0  0  0  0  0  0  0  0  0
   -4.0659  -31.8624  -13.0008 O   0  0  0  0  0  0  0  0  0  0  0  0
   -6.2616  -31.0971  -13.2645 C   0  0  1  0  0  0  0  0  0  0  0  0
   -6.8535  -32.2710  -13.6175 O   0  0  0  0  0  0  0  0  0  0  0  0
   -7.1221  -29.9474  -13.6636 C   0  0  1  0  0  0  0  0  0  0  0  0
   -6.7016  -29.3113  -14.8474 O   0  0  0  0  0  0  0  0  0  0  0  0
   -8.4411  -30.6211  -13.9320 C   0  0  2  0  0  0  0  0  0  0  0  0
   -9.1071  -30.7498  -12.7213 O   0  0  0  0  0  0  0  0  0  0  0  0
   -7.9954  -32.0001  -14.3539 C   0  0  1  0  0  0  0  0  0  0  0  0
   -7.6064  -32.0443  -15.8119 C   0  0  0  0  0  0  0  0  0  0  0  0
   -8.4667  -32.7840  -16.5937 O   0  0  0  0  0  0  0  0  0  0  0  0
  1  2  1  0
  1 10  1  0
  1 23  1  1
  2  3  1  0
  2  7  1  1
  3  4  1  0
  3  8  1  6
  5  4  1  0
  4  9  1  1
  5  6  1  6
 10  5  1  0
  6 11  1  0
 15 12  1  1
 13 14  1  0
 15 13  1  0
 16 15  1  0
 17 15  1  0
 21 16  1  0
 17 18  1  6
 19 17  1  0
 19 20  1  1
 21 19  1  0
 21 22  1  6
 22 23  1  0
M  END
$$$$
