
     RDKit          3D

 23 24  0  0  0  0  0  0  0  0999 V2000
   -7.5877  -32.6875  -14.6717 C   0  0  2  0  0  0  0  0  0  0  0  0
   -8.0326  -31.2538  -14.7661 C   0  0  1  0  0  0  0  0  0  0  0  0
   -7.8269  -30.6085  -13.4127 C   0  0  2  0  0  0  0  0  0  0  0  0
   -6.4862  -30.9062  -12.8261 C   0  0  1  0  0  0  0  0  0  0  0  0
   -5.6706  -31.6696  -13.8116 C   0  0  1  0  0  0  0  0  0  0  0  0
   -4.3040  -32.0469  -13.2735 C   0  0  0  0  0  0  0  0  0  0  0  0
   -7.4600  -30.5562  -15.8025 O   0  0  0  0  0  0  0  0  0  0  0  0
   -8.8443  -31.1180  -12.5729 O   0  0  0  0  0  0  0  0  0  0  0  0
   -5.8575  -29.6873  -12.5566 O   0  0  0  0  0  0  0  0  0  0  0  0
   -6.2531  -32.8051  -14.2917 O   0  0  0  0  0  0  0  0  0  0  0  0
   -3.8724  -33.2712  -13.7744 O   0  0  0  0  0  0  0  0  0  0  0  0
   -5.6164  -36.6937  -19.2865 O   0  0  0  0  0  0  0  0  0  0  0  0
   -4.3211  -35.6393  -17.6599 C   0  0  0  0  0  0  0  0  0  0  0  0
   -4.3047  -34.2568  -17.8399 O   0  0  0  0  0  0  0  0  0  0  0  0
   -5.7133  -36.1190  -17.9961 C   0  0  1  0  0  0  0  0  0  0  0  0
   -6.6329  -35.1185  -18.0754 O   0  0  0  0  0  0  0  0  0  0  0  0
   -6.2006  -37.1937  -17.0856 C   0  0  1  0  0  0  0  0  0  0  0  0
   -5.6305  -37.1453  -15.7989 O   0  0  0  0  0  0  0  0  0  0  0  0
   -7.6644  -36.8643  -16.9666 C   0  0  2  0  0  0  0  0  0  0  0  0
   -8.3178  -37.4328  -18.0509 O   0  0  0  0  0  0  0  0  0  0  0  0
   -7.6553  -35.3693  -17.1747 C   0  0  1  0  0  0  0  0  0  0  0  0
   -7.3219  -34.6262  -15.9036 C   0  0  0  0  0  0  0  0  0  0  0  0
   -7.8410  -33.3508  -15.8539 O   0  0  0  0  0  0  0  0  0  0  0  0
  1  2  1  0
  1 10  1  0
  1 23  1  6
  2  3  1  0
  2  7  1  6
  3  4  1  0
  3  8  1  1
  5  4  1  0
  4  9  1  6
  5  6  1  1
 10  5  1  0
  6 11  1  0
 15 12  1  6
 13 14  1  0
 15 13  1  0
 16 15  1  0
 17 15  1  0
 21 16  1  0
 17 18  1  1
 19 17  1  0
 19 20  1  6
 21 19  1  0
 21 22  1  1
 22 23  1  0
M  END
$$$$
