
     RDKit          3D

 23 24  0  0  0  0  0  0  0  0999 V2000
   -7.2485  -34.5433  -16.0285 C   0  0  2  0  0  0  0  0  0  0  0  0
   -8.1271  -35.7585  -16.1461 C   0  0  1  0  0  0  0  0  0  0  0  0
   -7.7987  -36.4506  -17.4513 C   0  0  2  0  0  0  0  0  0  0  0  0
   -6.3298  -36.6035  -17.6730 C   0  0  1  0  0  0  0  0  0  0  0  0
   -5.5930  -36.1300  -16.4679 C   0  0  1  0  0  0  0  0  0  0  0  0
   -4.0878  -36.2153  -16.6308 C   0  0  0  0  0  0  0  0  0  0  0  0
   -8.0815  -36.5910  -15.0537 O   0  0  0  0  0  0  0  0  0  0  0  0
   -8.3599  -35.6520  -18.4746 O   0  0  0  0  0  0  0  0  0  0  0  0
   -6.0661  -37.9623  -17.8673 O   0  0  0  0  0  0  0  0  0  0  0  0
   -5.8935  -34.8626  -16.0645 O   0  0  0  0  0  0  0  0  0  0  0  0
   -3.6343  -35.4042  -17.6665 O   0  0  0  0  0  0  0  0  0  0  0  0
   -6.5265  -29.2191  -12.6382 O   0  0  0  0  0  0  0  0  0  0  0  0
   -5.3160  -29.9582  -14.4885 C   0  0  0  0  0  0  0  0  0  0  0  0
   -4.3263  -30.2139  -13.5404 O   0  0  0  0  0  0  0  0  0  0  0  0
   -6.6479  -30.0454  -13.7815 C   0  0  1  0  0  0  0  0  0  0  0  0
   -6.9509  -31.2958  -13.3370 O   0  0  0  0  0  0  0  0  0  0  0  0
   -7.7772  -29.4983  -14.5858 C   0  0  1  0  0  0  0  0  0  0  0  0
   -7.5719  -29.5803  -15.9765 O   0  0  0  0  0  0  0  0  0  0  0  0
   -8.9029  -30.4275  -14.2187 C   0  0  2  0  0  0  0  0  0  0  0  0
   -9.4681  -29.9654  -13.0385 O   0  0  0  0  0  0  0  0  0  0  0  0
   -8.1532  -31.6973  -13.8963 C   0  0  1  0  0  0  0  0  0  0  0  0
   -7.8245  -32.4878  -15.1397 C   0  0  0  0  0  0  0  0  0  0  0  0
   -7.5718  -33.8209  -14.8993 O   0  0  0  0  0  0  0  0  0  0  0  0
  1  2  1  0
  1 10  1  0
  1 23  1  1
  2  3  1  0
  2  7  1  1
  3  4  1  0
  3  8  1  6
  5  4  1  0
  4  9  1  1
  5  6  1  6
 10  5  1  0
  6 11  1  0
 15 12  1  1
 13 14  1  0
 15 13  1  0
 16 15  1  0
 17 15  1  0
 21 16  1  0
 17 18  1  6
 19 17  1  0
 19 20  1  1
 21 19  1  0
 21 22  1  6
 22 23  1  0
M  END
$$$$
