
     RDKit          3D

 23 24  0  0  0  0  0  0  0  0999 V2000
   -5.0251  -33.8872  -17.2945 C   0  0  2  0  0  0  0  0  0  0  0  0
   -6.0637  -33.8680  -18.3823 C   0  0  1  0  0  0  0  0  0  0  0  0
   -5.8455  -35.0809  -19.2608 C   0  0  2  0  0  0  0  0  0  0  0  0
   -5.6510  -36.3371  -18.4772 C   0  0  1  0  0  0  0  0  0  0  0  0
   -5.8500  -36.0551  -17.0280 C   0  0  1  0  0  0  0  0  0  0  0  0
   -5.6288  -37.2772  -16.1578 C   0  0  0  0  0  0  0  0  0  0  0  0
   -7.3533  -33.7438  -17.9240 O   0  0  0  0  0  0  0  0  0  0  0  0
   -4.6906  -34.8092  -20.0305 O   0  0  0  0  0  0  0  0  0  0  0  0
   -6.6124  -37.2587  -18.9014 O   0  0  0  0  0  0  0  0  0  0  0  0
   -5.0860  -35.0449  -16.5229 O   0  0  0  0  0  0  0  0  0  0  0  0
   -4.5016  -37.1405  -15.3536 O   0  0  0  0  0  0  0  0  0  0  0  0
   -9.9541  -31.4080  -14.6686 O   0  0  0  0  0  0  0  0  0  0  0  0
   -9.4976  -33.6432  -15.1494 C   0  0  0  0  0  0  0  0  0  0  0  0
   -9.5874  -33.6808  -16.5403 O   0  0  0  0  0  0  0  0  0  0  0  0
   -8.8753  -32.3187  -14.7757 C   0  0  1  0  0  0  0  0  0  0  0  0
   -8.0309  -31.8241  -15.7219 O   0  0  0  0  0  0  0  0  0  0  0  0
   -8.2013  -32.3403  -13.4464 C   0  0  1  0  0  0  0  0  0  0  0  0
   -7.7247  -33.6123  -13.0754 O   0  0  0  0  0  0  0  0  0  0  0  0
   -7.0167  -31.4417  -13.6807 C   0  0  2  0  0  0  0  0  0  0  0  0
   -7.4330  -30.1313  -13.4920 O   0  0  0  0  0  0  0  0  0  0  0  0
   -6.7793  -31.6343  -15.1588 C   0  0  1  0  0  0  0  0  0  0  0  0
   -5.9702  -32.8769  -15.4416 C   0  0  0  0  0  0  0  0  0  0  0  0
   -5.1184  -32.7518  -16.5175 O   0  0  0  0  0  0  0  0  0  0  0  0
  1  2  1  0
  1 10  1  0
  1 23  1  1
  2  3  1  0
  2  7  1  1
  3  4  1  0
  3  8  1  1
  5  4  1  0
  4  9  1  6
  5  6  1  1
 10  5  1  0
  6 11  1  0
 15 12  1  1
 13 14  1  0
 15 13  1  0
 16 15  1  0
 17 15  1  0
 21 16  1  0
 17 18  1  6
 19 17  1  0
 19 20  1  6
 21 19  1  0
 21 22  1  1
 22 23  1  0
M  END
$$$$
