
     RDKit          3D

 23 24  0  0  0  0  0  0  0  0999 V2000
   -6.9582  -34.4523  -16.3338 C   0  0  2  0  0  0  0  0  0  0  0  0
   -7.9714  -35.3774  -16.9501 C   0  0  1  0  0  0  0  0  0  0  0  0
   -7.4050  -35.8904  -18.2564 C   0  0  2  0  0  0  0  0  0  0  0  0
   -5.9912  -36.3552  -18.1327 C   0  0  1  0  0  0  0  0  0  0  0  0
   -5.5703  -36.2926  -16.7051 C   0  0  1  0  0  0  0  0  0  0  0  0
   -4.1273  -36.7120  -16.5011 C   0  0  0  0  0  0  0  0  0  0  0  0
   -8.4063  -36.3731  -16.1087 O   0  0  0  0  0  0  0  0  0  0  0  0
   -7.4801  -34.8136  -19.1701 O   0  0  0  0  0  0  0  0  0  0  0  0
   -5.9379  -37.6821  -18.5689 O   0  0  0  0  0  0  0  0  0  0  0  0
   -5.7369  -35.0805  -16.1033 O   0  0  0  0  0  0  0  0  0  0  0  0
   -3.4866  -35.9139  -15.5584 O   0  0  0  0  0  0  0  0  0  0  0  0
   -6.6396  -30.0340  -11.7118 O   0  0  0  0  0  0  0  0  0  0  0  0
   -4.9648  -30.6886  -13.1957 C   0  0  0  0  0  0  0  0  0  0  0  0
   -4.6033  -32.0339  -13.1370 O   0  0  0  0  0  0  0  0  0  0  0  0
   -6.4593  -30.6162  -12.9898 C   0  0  1  0  0  0  0  0  0  0  0  0
   -7.0675  -31.8337  -12.9606 O   0  0  0  0  0  0  0  0  0  0  0  0
   -7.1446  -29.7229  -13.9665 C   0  0  1  0  0  0  0  0  0  0  0  0
   -6.4732  -29.6134  -15.1994 O   0  0  0  0  0  0  0  0  0  0  0  0
   -8.4427  -30.4486  -14.1983 C   0  0  2  0  0  0  0  0  0  0  0  0
   -9.3209  -30.0826  -13.1879 O   0  0  0  0  0  0  0  0  0  0  0  0
   -8.0364  -31.8809  -13.9499 C   0  0  1  0  0  0  0  0  0  0  0  0
   -7.3994  -32.5045  -15.1682 C   0  0  0  0  0  0  0  0  0  0  0  0
   -7.4620  -33.8809  -15.1842 O   0  0  0  0  0  0  0  0  0  0  0  0
  1  2  1  0
  1 10  1  0
  1 23  1  1
  2  3  1  0
  2  7  1  1
  3  4  1  0
  3  8  1  6
  5  4  1  0
  4  9  1  1
  5  6  1  6
 10  5  1  0
  6 11  1  0
 15 12  1  1
 13 14  1  0
 15 13  1  0
 16 15  1  0
 17 15  1  0
 21 16  1  0
 17 18  1  6
 19 17  1  0
 19 20  1  1
 21 19  1  0
 21 22  1  6
 22 23  1  0
M  END
$$$$
