
     RDKit          3D

 23 24  0  0  0  0  0  0  0  0999 V2000
   -7.4211  -34.4761  -16.3266 C   0  0  2  0  0  0  0  0  0  0  0  0
   -7.7094  -35.9170  -16.0055 C   0  0  1  0  0  0  0  0  0  0  0  0
   -7.4587  -36.7351  -17.2538 C   0  0  2  0  0  0  0  0  0  0  0  0
   -6.1673  -36.3936  -17.9214 C   0  0  1  0  0  0  0  0  0  0  0  0
   -5.4212  -35.4102  -17.0874 C   0  0  1  0  0  0  0  0  0  0  0  0
   -4.1116  -34.9804  -17.7198 C   0  0  0  0  0  0  0  0  0  0  0  0
   -7.0486  -36.3871  -14.8960 O   0  0  0  0  0  0  0  0  0  0  0  0
   -8.5384  -36.4658  -18.1266 O   0  0  0  0  0  0  0  0  0  0  0  0
   -5.4170  -37.5682  -18.0268 O   0  0  0  0  0  0  0  0  0  0  0  0
   -6.1132  -34.2810  -16.7630 O   0  0  0  0  0  0  0  0  0  0  0  0
   -4.3125  -34.3467  -18.9421 O   0  0  0  0  0  0  0  0  0  0  0  0
   -6.0038  -29.0848  -13.2618 O   0  0  0  0  0  0  0  0  0  0  0  0
   -4.9488  -30.0360  -15.1104 C   0  0  0  0  0  0  0  0  0  0  0  0
   -4.8516  -28.8908  -15.8997 O   0  0  0  0  0  0  0  0  0  0  0  0
   -6.2534  -29.9504  -14.3541 C   0  0  1  0  0  0  0  0  0  0  0  0
   -6.6630  -31.1392  -13.8327 O   0  0  0  0  0  0  0  0  0  0  0  0
   -7.3529  -29.3309  -15.1471 C   0  0  1  0  0  0  0  0  0  0  0  0
   -7.2126  -29.5030  -16.5376 O   0  0  0  0  0  0  0  0  0  0  0  0
   -8.5511  -30.1200  -14.6918 C   0  0  2  0  0  0  0  0  0  0  0  0
   -9.0193  -29.5438  -13.5194 O   0  0  0  0  0  0  0  0  0  0  0  0
   -7.9211  -31.4425  -14.3278 C   0  0  1  0  0  0  0  0  0  0  0  0
   -7.7236  -32.3237  -15.5375 C   0  0  0  0  0  0  0  0  0  0  0  0
   -7.7238  -33.6710  -15.2486 O   0  0  0  0  0  0  0  0  0  0  0  0
  1  2  1  0
  1 10  1  0
  1 23  1  1
  2  3  1  0
  2  7  1  1
  3  4  1  0
  3  8  1  6
  5  4  1  0
  4  9  1  1
  5  6  1  6
 10  5  1  0
  6 11  1  0
 15 12  1  1
 13 14  1  0
 15 13  1  0
 16 15  1  0
 17 15  1  0
 21 16  1  0
 17 18  1  6
 19 17  1  0
 19 20  1  1
 21 19  1  0
 21 22  1  6
 22 23  1  0
M  END
$$$$
