
     RDKit          3D

 23 24  0  0  0  0  0  0  0  0999 V2000
   -7.3396  -33.8042  -17.4298 C   0  0  2  0  0  0  0  0  0  0  0  0
   -8.1026  -34.9666  -18.0035 C   0  0  1  0  0  0  0  0  0  0  0  0
   -7.3443  -35.4763  -19.2098 C   0  0  2  0  0  0  0  0  0  0  0  0
   -5.8822  -35.6359  -18.9508 C   0  0  1  0  0  0  0  0  0  0  0  0
   -5.5982  -35.3570  -17.5153 C   0  0  1  0  0  0  0  0  0  0  0  0
   -4.1228  -35.4589  -17.1797 C   0  0  0  0  0  0  0  0  0  0  0  0
   -8.4045  -35.9457  -17.0876 O   0  0  0  0  0  0  0  0  0  0  0  0
   -7.5509  -34.5266  -20.2372 O   0  0  0  0  0  0  0  0  0  0  0  0
   -5.5395  -36.9604  -19.2373 O   0  0  0  0  0  0  0  0  0  0  0  0
   -6.0430  -34.1516  -17.0590 O   0  0  0  0  0  0  0  0  0  0  0  0
   -3.7971  -34.7098  -16.0533 O   0  0  0  0  0  0  0  0  0  0  0  0
   -6.8131  -31.3709  -11.5965 O   0  0  0  0  0  0  0  0  0  0  0  0
   -5.1680  -32.3209  -12.9479 C   0  0  0  0  0  0  0  0  0  0  0  0
   -5.4121  -33.6455  -12.5878 O   0  0  0  0  0  0  0  0  0  0  0  0
   -6.4984  -31.6059  -12.9568 C   0  0  1  0  0  0  0  0  0  0  0  0
   -7.5148  -32.3471  -13.4769 O   0  0  0  0  0  0  0  0  0  0  0  0
   -6.4442  -30.2718  -13.6192 C   0  0  1  0  0  0  0  0  0  0  0  0
   -5.4444  -30.1712  -14.6057 O   0  0  0  0  0  0  0  0  0  0  0  0
   -7.7861  -30.2037  -14.2978 C   0  0  2  0  0  0  0  0  0  0  0  0
   -8.7102  -29.7481  -13.3681 O   0  0  0  0  0  0  0  0  0  0  0  0
   -8.0736  -31.6647  -14.5454 C   0  0  1  0  0  0  0  0  0  0  0  0
   -7.3971  -32.1669  -15.7980 C   0  0  0  0  0  0  0  0  0  0  0  0
   -8.0353  -33.2398  -16.3815 O   0  0  0  0  0  0  0  0  0  0  0  0
  1  2  1  0
  1 10  1  0
  1 23  1  1
  2  3  1  0
  2  7  1  1
  3  4  1  0
  3  8  1  6
  5  4  1  0
  4  9  1  1
  5  6  1  6
 10  5  1  0
  6 11  1  0
 15 12  1  1
 13 14  1  0
 15 13  1  0
 16 15  1  0
 17 15  1  0
 21 16  1  0
 17 18  1  6
 19 17  1  0
 19 20  1  1
 21 19  1  0
 21 22  1  6
 22 23  1  0
M  END
$$$$
