
     RDKit          3D

 23 24  0  0  0  0  0  0  0  0999 V2000
   -7.1280  -32.7993  -13.9711 C   0  0  2  0  0  0  0  0  0  0  0  0
   -8.0352  -31.6447  -14.2967 C   0  0  1  0  0  0  0  0  0  0  0  0
   -7.5816  -30.4487  -13.4879 C   0  0  2  0  0  0  0  0  0  0  0  0
   -6.1043  -30.2377  -13.5434 C   0  0  1  0  0  0  0  0  0  0  0  0
   -5.4983  -31.2114  -14.4943 C   0  0  1  0  0  0  0  0  0  0  0  0
   -3.9891  -31.0877  -14.5765 C   0  0  0  0  0  0  0  0  0  0  0  0
   -8.1550  -31.3878  -15.6414 O   0  0  0  0  0  0  0  0  0  0  0  0
   -7.9831  -30.6975  -12.1548 O   0  0  0  0  0  0  0  0  0  0  0  0
   -5.8751  -28.9396  -14.0081 O   0  0  0  0  0  0  0  0  0  0  0  0
   -5.7926  -32.5203  -14.2510 O   0  0  0  0  0  0  0  0  0  0  0  0
   -3.3560  -31.8303  -13.5846 O   0  0  0  0  0  0  0  0  0  0  0  0
   -7.6817  -35.1309  -20.0230 O   0  0  0  0  0  0  0  0  0  0  0  0
   -5.5599  -34.9470  -19.0746 C   0  0  0  0  0  0  0  0  0  0  0  0
   -5.3193  -33.6810  -19.6070 O   0  0  0  0  0  0  0  0  0  0  0  0
   -7.0362  -35.0310  -18.7668 C   0  0  1  0  0  0  0  0  0  0  0  0
   -7.5316  -33.9215  -18.1532 O   0  0  0  0  0  0  0  0  0  0  0  0
   -7.4075  -36.2525  -17.9976 C   0  0  1  0  0  0  0  0  0  0  0  0
   -6.3650  -36.7524  -17.1937 O   0  0  0  0  0  0  0  0  0  0  0  0
   -8.4948  -35.7358  -17.0940 C   0  0  2  0  0  0  0  0  0  0  0  0
   -9.6882  -35.7710  -17.8015 O   0  0  0  0  0  0  0  0  0  0  0  0
   -8.0989  -34.2871  -16.9432 C   0  0  1  0  0  0  0  0  0  0  0  0
   -7.0427  -34.1000  -15.8810 C   0  0  0  0  0  0  0  0  0  0  0  0
   -7.5542  -33.9440  -14.6111 O   0  0  0  0  0  0  0  0  0  0  0  0
  1  2  1  0
  1 10  1  0
  1 23  1  6
  2  3  1  0
  2  7  1  6
  3  4  1  0
  3  8  1  1
  5  4  1  0
  4  9  1  6
  5  6  1  1
 10  5  1  0
  6 11  1  0
 15 12  1  6
 13 14  1  0
 15 13  1  0
 16 15  1  0
 17 15  1  0
 21 16  1  0
 17 18  1  1
 19 17  1  0
 19 20  1  6
 21 19  1  0
 21 22  1  1
 22 23  1  0
M  END
$$$$
