
     RDKit          3D

 23 24  0  0  0  0  0  0  0  0999 V2000
   -7.5872  -32.4287  -14.6236 C   0  0  2  0  0  0  0  0  0  0  0  0
   -8.2958  -31.1088  -14.4890 C   0  0  1  0  0  0  0  0  0  0  0  0
   -7.5743  -30.2938  -13.4376 C   0  0  2  0  0  0  0  0  0  0  0  0
   -6.0919  -30.2967  -13.6179 C   0  0  1  0  0  0  0  0  0  0  0  0
   -5.7453  -31.0161  -14.8755 C   0  0  1  0  0  0  0  0  0  0  0  0
   -4.2493  -31.0980  -15.1101 C   0  0  0  0  0  0  0  0  0  0  0  0
   -8.4715  -30.4431  -15.6784 O   0  0  0  0  0  0  0  0  0  0  0  0
   -7.9093  -30.8712  -12.1908 O   0  0  0  0  0  0  0  0  0  0  0  0
   -5.6710  -28.9677  -13.7189 O   0  0  0  0  0  0  0  0  0  0  0  0
   -6.2493  -32.2788  -14.9797 O   0  0  0  0  0  0  0  0  0  0  0  0
   -3.5808  -31.6097  -14.0022 O   0  0  0  0  0  0  0  0  0  0  0  0
   -6.9237  -36.3666  -19.6075 O   0  0  0  0  0  0  0  0  0  0  0  0
   -5.2810  -35.1171  -18.5233 C   0  0  0  0  0  0  0  0  0  0  0  0
   -5.4821  -33.7375  -18.5290 O   0  0  0  0  0  0  0  0  0  0  0  0
   -6.6343  -35.7671  -18.3579 C   0  0  1  0  0  0  0  0  0  0  0  0
   -7.6378  -34.8843  -18.0995 O   0  0  0  0  0  0  0  0  0  0  0  0
   -6.6407  -36.8625  -17.3472 C   0  0  1  0  0  0  0  0  0  0  0  0
   -5.6689  -36.7073  -16.3400 O   0  0  0  0  0  0  0  0  0  0  0  0
   -8.0000  -36.7035  -16.7207 C   0  0  2  0  0  0  0  0  0  0  0  0
   -8.9160  -37.3784  -17.5153 O   0  0  0  0  0  0  0  0  0  0  0  0
   -8.2446  -35.2250  -16.9015 C   0  0  1  0  0  0  0  0  0  0  0  0
   -7.5823  -34.4085  -15.8182 C   0  0  0  0  0  0  0  0  0  0  0  0
   -8.2595  -33.2505  -15.5035 O   0  0  0  0  0  0  0  0  0  0  0  0
  1  2  1  0
  1 10  1  0
  1 23  1  6
  2  3  1  0
  2  7  1  6
  3  4  1  0
  3  8  1  1
  5  4  1  0
  4  9  1  6
  5  6  1  1
 10  5  1  0
  6 11  1  0
 15 12  1  6
 13 14  1  0
 15 13  1  0
 16 15  1  0
 17 15  1  0
 21 16  1  0
 17 18  1  1
 19 17  1  0
 19 20  1  6
 21 19  1  0
 21 22  1  1
 22 23  1  0
M  END
$$$$
