
     RDKit          3D

 23 24  0  0  0  0  0  0  0  0999 V2000
   -7.6891  -32.3291  -15.3474 C   0  0  2  0  0  0  0  0  0  0  0  0
   -7.7161  -30.8826  -14.9360 C   0  0  1  0  0  0  0  0  0  0  0  0
   -7.4169  -30.8103  -13.4543 C   0  0  2  0  0  0  0  0  0  0  0  0
   -6.2450  -31.6468  -13.0579 C   0  0  1  0  0  0  0  0  0  0  0  0
   -5.6172  -32.2321  -14.2755 C   0  0  1  0  0  0  0  0  0  0  0  0
   -4.4396  -33.1314  -13.9525 C   0  0  0  0  0  0  0  0  0  0  0  0
   -6.9164  -30.0674  -15.7006 O   0  0  0  0  0  0  0  0  0  0  0  0
   -8.5806  -31.2669  -12.7930 O   0  0  0  0  0  0  0  0  0  0  0  0
   -5.3211  -30.8136  -12.4208 O   0  0  0  0  0  0  0  0  0  0  0  0
   -6.4620  -32.9327  -15.0846 O   0  0  0  0  0  0  0  0  0  0  0  0
   -4.8282  -34.2448  -13.2141 O   0  0  0  0  0  0  0  0  0  0  0  0
   -5.8786  -35.1763  -20.7471 O   0  0  0  0  0  0  0  0  0  0  0  0
   -4.9686  -35.4100  -18.6134 C   0  0  0  0  0  0  0  0  0  0  0  0
   -4.2433  -34.2321  -18.4391 O   0  0  0  0  0  0  0  0  0  0  0  0
   -6.2218  -35.0562  -19.3787 C   0  0  1  0  0  0  0  0  0  0  0  0
   -6.6381  -33.7747  -19.1851 O   0  0  0  0  0  0  0  0  0  0  0  0
   -7.3461  -36.0040  -19.1358 C   0  0  1  0  0  0  0  0  0  0  0  0
   -7.2956  -36.6290  -17.8750 O   0  0  0  0  0  0  0  0  0  0  0  0
   -8.5400  -35.0877  -19.1614 C   0  0  2  0  0  0  0  0  0  0  0  0
   -8.9176  -34.9180  -20.4860 O   0  0  0  0  0  0  0  0  0  0  0  0
   -7.9329  -33.7878  -18.6922 C   0  0  1  0  0  0  0  0  0  0  0  0
   -7.8377  -33.7220  -17.1871 C   0  0  0  0  0  0  0  0  0  0  0  0
   -8.0486  -32.4614  -16.6721 O   0  0  0  0  0  0  0  0  0  0  0  0
  1  2  1  0
  1 10  1  0
  1 23  1  6
  2  3  1  0
  2  7  1  6
  3  4  1  0
  3  8  1  1
  5  4  1  0
  4  9  1  6
  5  6  1  1
 10  5  1  0
  6 11  1  0
 15 12  1  6
 13 14  1  0
 15 13  1  0
 16 15  1  0
 17 15  1  0
 21 16  1  0
 17 18  1  1
 19 17  1  0
 19 20  1  6
 21 19  1  0
 21 22  1  1
 22 23  1  0
M  END
$$$$
