
     RDKit          3D

 23 24  0  0  0  0  0  0  0  0999 V2000
   -7.7539  -34.6671  -15.1951 C   0  0  2  0  0  0  0  0  0  0  0  0
   -7.6682  -33.1906  -14.9215 C   0  0  1  0  0  0  0  0  0  0  0  0
   -6.8806  -32.9949  -13.6440 C   0  0  2  0  0  0  0  0  0  0  0  0
   -5.6269  -33.8053  -13.6059 C   0  0  1  0  0  0  0  0  0  0  0  0
   -5.4426  -34.4981  -14.9117 C   0  0  1  0  0  0  0  0  0  0  0  0
   -4.2073  -35.3773  -14.9390 C   0  0  0  0  0  0  0  0  0  0  0  0
   -7.1961  -32.4510  -15.9792 O   0  0  0  0  0  0  0  0  0  0  0  0
   -7.7375  -33.3826  -12.5879 O   0  0  0  0  0  0  0  0  0  0  0  0
   -4.5580  -32.9293  -13.3965 O   0  0  0  0  0  0  0  0  0  0  0  0
   -6.4988  -35.2574  -15.3202 O   0  0  0  0  0  0  0  0  0  0  0  0
   -4.4645  -36.6441  -14.4242 O   0  0  0  0  0  0  0  0  0  0  0  0
   -6.4578  -32.3748  -20.7194 O   0  0  0  0  0  0  0  0  0  0  0  0
   -5.1612  -34.0643  -19.7708 C   0  0  0  0  0  0  0  0  0  0  0  0
   -4.5393  -33.4690  -18.6741 O   0  0  0  0  0  0  0  0  0  0  0  0
   -6.5573  -33.4946  -19.8587 C   0  0  1  0  0  0  0  0  0  0  0  0
   -7.0388  -33.0396  -18.6696 O   0  0  0  0  0  0  0  0  0  0  0  0
   -7.5350  -34.4291  -20.4852 C   0  0  1  0  0  0  0  0  0  0  0  0
   -7.2049  -35.7877  -20.3175 O   0  0  0  0  0  0  0  0  0  0  0  0
   -8.7871  -34.1465  -19.6991 C   0  0  2  0  0  0  0  0  0  0  0  0
   -9.4105  -33.0474  -20.2729 O   0  0  0  0  0  0  0  0  0  0  0  0
   -8.2176  -33.7045  -18.3729 C   0  0  1  0  0  0  0  0  0  0  0  0
   -7.8581  -34.8790  -17.4953 C   0  0  0  0  0  0  0  0  0  0  0  0
   -8.5429  -34.9087  -16.2999 O   0  0  0  0  0  0  0  0  0  0  0  0
  1  2  1  0
  1 10  1  0
  1 23  1  6
  2  3  1  0
  2  7  1  6
  3  4  1  0
  3  8  1  1
  5  4  1  0
  4  9  1  6
  5  6  1  1
 10  5  1  0
  6 11  1  0
 15 12  1  6
 13 14  1  0
 15 13  1  0
 16 15  1  0
 17 15  1  0
 21 16  1  0
 17 18  1  1
 19 17  1  0
 19 20  1  6
 21 19  1  0
 21 22  1  1
 22 23  1  0
M  END
$$$$
