
     RDKit          3D

 23 24  0  0  0  0  0  0  0  0999 V2000
   -5.8399  -35.5139  -15.2312 C   0  0  2  0  0  0  0  0  0  0  0  0
   -4.6472  -35.9883  -16.0151 C   0  0  1  0  0  0  0  0  0  0  0  0
   -4.9272  -37.3982  -16.4885 C   0  0  2  0  0  0  0  0  0  0  0  0
   -6.2862  -37.5491  -17.0889 C   0  0  1  0  0  0  0  0  0  0  0  0
   -6.9483  -36.2166  -17.1622 C   0  0  1  0  0  0  0  0  0  0  0  0
   -8.3542  -36.2915  -17.7256 C   0  0  0  0  0  0  0  0  0  0  0  0
   -4.2622  -35.1350  -17.0212 O   0  0  0  0  0  0  0  0  0  0  0  0
   -4.8085  -38.2286  -15.3499 O   0  0  0  0  0  0  0  0  0  0  0  0
   -6.1282  -38.0546  -18.3824 O   0  0  0  0  0  0  0  0  0  0  0  0
   -7.0117  -35.5343  -15.9834 O   0  0  0  0  0  0  0  0  0  0  0  0
   -9.1326  -37.2244  -17.0475 O   0  0  0  0  0  0  0  0  0  0  0  0
   -6.9062  -29.1987  -15.2012 O   0  0  0  0  0  0  0  0  0  0  0  0
   -7.4171  -30.7360  -16.8778 C   0  0  0  0  0  0  0  0  0  0  0  0
   -6.2518  -31.2558  -17.4398 O   0  0  0  0  0  0  0  0  0  0  0  0
   -7.1684  -30.5763  -15.3966 C   0  0  1  0  0  0  0  0  0  0  0  0
   -6.0771  -31.2554  -14.9484 O   0  0  0  0  0  0  0  0  0  0  0  0
   -8.3581  -30.9071  -14.5620 C   0  0  1  0  0  0  0  0  0  0  0  0
   -9.2245  -31.8428  -15.1592 O   0  0  0  0  0  0  0  0  0  0  0  0
   -7.7266  -31.5503  -13.3565 C   0  0  2  0  0  0  0  0  0  0  0  0
   -7.3473  -30.5392  -12.4847 O   0  0  0  0  0  0  0  0  0  0  0  0
   -6.4675  -32.1337  -13.9505 C   0  0  1  0  0  0  0  0  0  0  0  0
   -6.7213  -33.4694  -14.6064 C   0  0  0  0  0  0  0  0  0  0  0  0
   -5.6005  -34.2662  -14.6950 O   0  0  0  0  0  0  0  0  0  0  0  0
  1  2  1  0
  1 10  1  0
  1 23  1  6
  2  3  1  0
  2  7  1  6
  3  4  1  0
  3  8  1  1
  5  4  1  0
  4  9  1  6
  5  6  1  1
 10  5  1  0
  6 11  1  0
 15 12  1  6
 13 14  1  0
 15 13  1  0
 16 15  1  0
 17 15  1  0
 21 16  1  0
 17 18  1  6
 19 17  1  0
 19 20  1  1
 21 19  1  0
 21 22  1  6
 22 23  1  0
M  END
$$$$
