
     RDKit          3D

 23 24  0  0  0  0  0  0  0  0999 V2000
   -6.4202  -35.6029  -16.2073 C   0  0  2  0  0  0  0  0  0  0  0  0
   -5.8874  -35.5335  -17.6122 C   0  0  1  0  0  0  0  0  0  0  0  0
   -4.7224  -36.4934  -17.7203 C   0  0  2  0  0  0  0  0  0  0  0  0
   -5.0184  -37.8333  -17.1310 C   0  0  1  0  0  0  0  0  0  0  0  0
   -6.4444  -37.8843  -16.7031 C   0  0  1  0  0  0  0  0  0  0  0  0
   -6.8143  -39.2043  -16.0546 C   0  0  0  0  0  0  0  0  0  0  0  0
   -6.8427  -35.7139  -18.5835 O   0  0  0  0  0  0  0  0  0  0  0  0
   -3.6469  -35.8896  -17.0285 O   0  0  0  0  0  0  0  0  0  0  0  0
   -4.8026  -38.7937  -18.1233 O   0  0  0  0  0  0  0  0  0  0  0  0
   -6.8334  -36.8864  -15.8592 O   0  0  0  0  0  0  0  0  0  0  0  0
   -8.1097  -39.1844  -15.5470 O   0  0  0  0  0  0  0  0  0  0  0  0
   -8.1929  -30.0532  -13.0564 O   0  0  0  0  0  0  0  0  0  0  0  0
   -6.1382  -31.1169  -12.7705 C   0  0  0  0  0  0  0  0  0  0  0  0
   -6.4696  -31.8820  -11.6530 O   0  0  0  0  0  0  0  0  0  0  0  0
   -7.3680  -31.0426  -13.6441 C   0  0  1  0  0  0  0  0  0  0  0  0
   -8.0903  -32.1961  -13.6719 O   0  0  0  0  0  0  0  0  0  0  0  0
   -7.0761  -30.5856  -15.0324 C   0  0  1  0  0  0  0  0  0  0  0  0
   -5.7713  -30.8912  -15.4650 O   0  0  0  0  0  0  0  0  0  0  0  0
   -8.0461  -31.4032  -15.8424 C   0  0  2  0  0  0  0  0  0  0  0  0
   -9.2661  -30.7417  -15.8394 O   0  0  0  0  0  0  0  0  0  0  0  0
   -8.1951  -32.6345  -14.9821 C   0  0  1  0  0  0  0  0  0  0  0  0
   -7.0760  -33.6210  -15.2129 C   0  0  0  0  0  0  0  0  0  0  0  0
   -7.4260  -34.6772  -16.0258 O   0  0  0  0  0  0  0  0  0  0  0  0
  1  2  1  0
  1 10  1  0
  1 23  1  6
  2  3  1  0
  2  7  1  6
  3  4  1  0
  3  8  1  1
  5  4  1  0
  4  9  1  6
  5  6  1  1
 10  5  1  0
  6 11  1  0
 15 12  1  1
 13 14  1  0
 15 13  1  0
 16 15  1  0
 17 15  1  0
 21 16  1  0
 17 18  1  6
 19 17  1  0
 19 20  1  1
 21 19  1  0
 21 22  1  6
 22 23  1  0
M  END
$$$$
