
     RDKit          3D

 23 24  0  0  0  0  0  0  0  0999 V2000
   -7.8372  -34.6221  -15.7909 C   0  0  2  0  0  0  0  0  0  0  0  0
   -6.8473  -35.5013  -15.0771 C   0  0  1  0  0  0  0  0  0  0  0  0
   -6.3673  -36.5549  -16.0516 C   0  0  2  0  0  0  0  0  0  0  0  0
   -5.9940  -35.9876  -17.3816 C   0  0  1  0  0  0  0  0  0  0  0  0
   -6.0879  -34.5017  -17.3326 C   0  0  1  0  0  0  0  0  0  0  0  0
   -5.7621  -33.8501  -18.6626 C   0  0  0  0  0  0  0  0  0  0  0  0
   -5.8286  -34.8139  -14.4620 O   0  0  0  0  0  0  0  0  0  0  0  0
   -7.4342  -37.4712  -16.2008 O   0  0  0  0  0  0  0  0  0  0  0  0
   -4.6718  -36.3551  -17.6472 O   0  0  0  0  0  0  0  0  0  0  0  0
   -7.2889  -34.0094  -16.9149 O   0  0  0  0  0  0  0  0  0  0  0  0
   -6.6959  -34.1788  -19.6404 O   0  0  0  0  0  0  0  0  0  0  0  0
   -5.6963  -29.1986  -13.5331 O   0  0  0  0  0  0  0  0  0  0  0  0
   -5.2401  -30.1530  -15.6106 C   0  0  0  0  0  0  0  0  0  0  0  0
   -4.2973  -31.1000  -15.2129 O   0  0  0  0  0  0  0  0  0  0  0  0
   -6.2673  -30.0520  -14.5079 C   0  0  1  0  0  0  0  0  0  0  0  0
   -6.5288  -31.2379  -13.8929 O   0  0  0  0  0  0  0  0  0  0  0  0
   -7.5387  -29.4091  -14.9461 C   0  0  1  0  0  0  0  0  0  0  0  0
   -7.8111  -29.5732  -16.3178 O   0  0  0  0  0  0  0  0  0  0  0  0
   -8.5668  -30.1822  -14.1644 C   0  0  2  0  0  0  0  0  0  0  0  0
   -8.6644  -29.6072  -12.9051 O   0  0  0  0  0  0  0  0  0  0  0  0
   -7.8814  -31.5172  -14.0021 C   0  0  1  0  0  0  0  0  0  0  0  0
   -8.0591  -32.3926  -15.2191 C   0  0  0  0  0  0  0  0  0  0  0  0
   -8.3789  -33.6993  -14.9210 O   0  0  0  0  0  0  0  0  0  0  0  0
  1  2  1  0
  1 10  1  0
  1 23  1  1
  2  3  1  0
  2  7  1  6
  3  4  1  0
  3  8  1  6
  5  4  1  0
  4  9  1  1
  5  6  1  6
 10  5  1  0
  6 11  1  0
 15 12  1  1
 13 14  1  0
 15 13  1  0
 16 15  1  0
 17 15  1  0
 21 16  1  0
 17 18  1  6
 19 17  1  0
 19 20  1  1
 21 19  1  0
 21 22  1  6
 22 23  1  0
M  END
$$$$
