
     RDKit          3D

 23 24  0  0  0  0  0  0  0  0999 V2000
   -7.0424  -33.8143  -17.5333 C   0  0  2  0  0  0  0  0  0  0  0  0
   -8.1042  -34.8561  -17.7558 C   0  0  1  0  0  0  0  0  0  0  0  0
   -7.4298  -36.1129  -18.2619 C   0  0  2  0  0  0  0  0  0  0  0  0
   -6.2191  -36.4808  -17.4690 C   0  0  1  0  0  0  0  0  0  0  0  0
   -6.0845  -35.5562  -16.3088 C   0  0  1  0  0  0  0  0  0  0  0  0
   -4.8509  -35.8401  -15.4737 C   0  0  0  0  0  0  0  0  0  0  0  0
   -8.9191  -35.0667  -16.6695 O   0  0  0  0  0  0  0  0  0  0  0  0
   -7.0667  -35.8538  -19.6039 O   0  0  0  0  0  0  0  0  0  0  0  0
   -6.3967  -37.7848  -16.9981 O   0  0  0  0  0  0  0  0  0  0  0  0
   -6.0744  -34.2292  -16.6222 O   0  0  0  0  0  0  0  0  0  0  0  0
   -3.7151  -35.9855  -16.2642 O   0  0  0  0  0  0  0  0  0  0  0  0
   -7.6195  -31.1434  -11.8240 O   0  0  0  0  0  0  0  0  0  0  0  0
   -5.5287  -31.5247  -12.7824 C   0  0  0  0  0  0  0  0  0  0  0  0
   -5.4104  -32.8688  -12.4312 O   0  0  0  0  0  0  0  0  0  0  0  0
   -6.9859  -31.2664  -13.0842 C   0  0  1  0  0  0  0  0  0  0  0  0
   -7.5994  -32.2905  -13.7384 O   0  0  0  0  0  0  0  0  0  0  0  0
   -7.2182  -29.9832  -13.8059 C   0  0  1  0  0  0  0  0  0  0  0  0
   -6.1250  -29.5715  -14.5922 O   0  0  0  0  0  0  0  0  0  0  0  0
   -8.3537  -30.3420  -14.7265 C   0  0  2  0  0  0  0  0  0  0  0  0
   -9.5376  -30.2019  -14.0160 O   0  0  0  0  0  0  0  0  0  0  0  0
   -8.1200  -31.8189  -14.9327 C   0  0  1  0  0  0  0  0  0  0  0  0
   -7.0883  -32.0813  -16.0031 C   0  0  0  0  0  0  0  0  0  0  0  0
   -7.6125  -32.6154  -17.1602 O   0  0  0  0  0  0  0  0  0  0  0  0
  1  2  1  0
  1 10  1  0
  1 23  1  1
  2  3  1  0
  2  7  1  1
  3  4  1  0
  3  8  1  6
  5  4  1  0
  4  9  1  1
  5  6  1  6
 10  5  1  0
  6 11  1  0
 15 12  1  1
 13 14  1  0
 15 13  1  0
 16 15  1  0
 17 15  1  0
 21 16  1  0
 17 18  1  6
 19 17  1  0
 19 20  1  1
 21 19  1  0
 21 22  1  6
 22 23  1  0
M  END
$$$$
