
     RDKit          3D

 43 46  0  0  0  0  0  0  0  0999 V2000
   71.0611   57.2633   15.5239 C   0  0  1  0  0  0  0  0  0  0  0  0
   70.5550   57.4723   16.8961 C   0  0  2  0  0  0  0  0  0  0  0  0
   72.8925   58.0531   17.6559 C   0  0  0  0  0  0  0  0  0  0  0  0
   74.3446   59.8034   18.4877 C   0  0  1  0  0  0  0  0  0  0  0  0
   75.1070   61.0203   18.0621 C   0  0  0  0  0  0  0  0  0  0  0  0
   74.8297   61.1895   20.2821 C   0  0  1  0  0  0  0  0  0  0  0  0
   72.9623   62.4019   20.4346 C   0  0  0  0  0  0  0  0  0  0  0  0
   69.2590   58.1645   16.9332 C   0  0  0  0  0  0  0  0  0  0  0  0
   66.6678   51.8455   13.6741 C   0  0  0  0  0  0  0  0  0  0  0  0
   67.8139   51.3610   14.2312 C   0  0  0  0  0  0  0  0  0  0  0  0
   68.7684   52.1787   14.8486 C   0  0  0  0  0  0  0  0  0  0  0  0
   68.5907   53.5435   14.9237 C   0  0  0  0  0  0  0  0  0  0  0  0
   67.4231   54.0355   14.3555 C   0  0  0  0  0  0  0  0  0  0  0  0
   66.4886   53.2339   13.7512 C   0  0  0  0  0  0  0  0  0  0  0  0
   71.7630   53.9386   14.0922 C   0  0  0  0  0  0  0  0  0  0  0  0
   71.9079   56.0334   15.3236 C   0  0  0  0  0  0  0  0  0  0  0  0
   73.7237   60.2700   19.7847 C   0  0  1  0  0  0  0  0  0  0  0  0
   72.5913   61.2224   19.5884 C   0  0  0  0  0  0  0  0  0  0  0  0
   68.8837   58.9450   18.1002 C   0  0  0  0  0  0  0  0  0  0  0  0
   67.6437   59.5832   18.2163 C   0  0  0  0  0  0  0  0  0  0  0  0
   67.3636   60.3239   19.3180 C   0  0  0  0  0  0  0  0  0  0  0  0
   68.2958   60.4625   20.3454 C   0  0  0  0  0  0  0  0  0  0  0  0
   69.5178   59.8392   20.2410 C   0  0  0  0  0  0  0  0  0  0  0  0
   69.8138   59.0850   19.1282 C   0  0  0  0  0  0  0  0  0  0  0  0
   66.1717   50.0466   12.0293 C   0  0  0  0  0  0  0  0  0  0  0  0
   73.1951   51.9703   12.4900 C   0  0  0  0  0  0  0  0  0  0  0  0
   73.2268   53.7557   14.2634 C   0  0  2  0  0  0  0  0  0  0  0  0
   73.8641   52.5422   13.6982 C   0  0  0  0  0  0  0  0  0  0  0  0
   73.6655   54.0221   15.7021 C   0  0  0  0  0  0  0  0  0  0  0  0
   65.6218   51.0266   13.0189 C   0  0  2  0  0  0  0  0  0  0  0  0
   74.5887   53.0052   16.2628 C   0  0  0  0  0  0  0  0  0  0  0  0
   71.1282   54.9689   14.7738 N   0  0  0  0  0  0  0  0  0  0  0  0
   71.5316   57.7685   17.8853 N   0  0  0  0  0  0  0  0  0  0  0  0
   70.1199   53.9636   16.9939 O   0  0  0  0  0  0  0  0  0  0  0  0
   69.0160   55.8818   16.0359 O   0  0  0  0  0  0  0  0  0  0  0  0
   69.9630   57.0594   14.6351 O   0  0  0  0  0  0  0  0  0  0  0  0
   73.6916   57.0976   17.5337 O   0  0  0  0  0  0  0  0  0  0  0  0
   73.4202   59.3383   17.5537 O   0  0  0  0  0  0  0  0  0  0  0  0
   75.4102   61.7523   19.1793 O   0  0  0  0  0  0  0  0  0  0  0  0
   74.1484   62.0876   21.0829 O   0  0  0  0  0  0  0  0  0  0  0  0
   65.6397   48.7933   12.1883 O   0  0  0  0  0  0  0  0  0  0  0  0
   64.7480   51.8935   12.3206 O   0  0  0  0  0  0  0  0  0  0  0  0
   69.7458   54.6100   15.6338 S   0  0  2  0  0  6  0  0  0  0  0  0
  1  2  1  0
 16  1  1  0
  1 36  1  6
  2  8  1  6
  2 33  1  0
 33  3  1  0
  3 37  2  0
  3 38  1  0
  4  5  1  0
  4 17  1  0
  4 38  1  6
  5 39  1  0
 17  6  1  0
  6 39  1  6
  6 40  1  0
 18  7  1  0
  7 40  1  0
  8 19  1  0
 10  9  2  0
 14  9  1  0
  9 30  1  0
 11 10  1  0
 12 11  2  0
 12 13  1  0
 43 12  1  0
 13 14  2  0
 27 15  1  1
 32 15  1  0
 32 16  1  0
 17 18  1  6
 19 20  2  0
 19 24  1  0
 20 21  1  0
 21 22  2  0
 23 22  1  0
 24 23  2  0
 30 25  1  0
 25 41  1  0
 28 26  1  0
 27 28  1  0
 27 29  1  0
 29 31  1  0
 30 42  1  6
 43 32  1  6
 43 34  2  0
 43 35  2  0
M  END
$$$$
