
     RDKit          3D

 43 46  0  0  0  0  0  0  0  0999 V2000
   71.4979   55.5644   17.1228 C   0  0  1  0  0  0  0  0  0  0  0  0
   70.0268   55.6496   17.0163 C   0  0  2  0  0  0  0  0  0  0  0  0
   68.0390   54.6914   15.7878 C   0  0  0  0  0  0  0  0  0  0  0  0
   66.9909   52.8039   14.6910 C   0  0  1  0  0  0  0  0  0  0  0  0
   66.8272   53.6431   13.4613 C   0  0  0  0  0  0  0  0  0  0  0  0
   67.7335   51.7035   12.7899 C   0  0  1  0  0  0  0  0  0  0  0  0
   69.9168   52.1643   12.8247 C   0  0  0  0  0  0  0  0  0  0  0  0
   69.3692   55.9008   18.3064 C   0  0  0  0  0  0  0  0  0  0  0  0
   74.6536   61.4648   21.0546 C   0  0  0  0  0  0  0  0  0  0  0  0
   73.3623   61.0990   21.2943 C   0  0  0  0  0  0  0  0  0  0  0  0
   72.6222   60.2918   20.4217 C   0  0  0  0  0  0  0  0  0  0  0  0
   73.1766   59.8183   19.2519 C   0  0  0  0  0  0  0  0  0  0  0  0
   74.4917   60.1921   19.0090 C   0  0  0  0  0  0  0  0  0  0  0  0
   75.2160   60.9825   19.8643 C   0  0  0  0  0  0  0  0  0  0  0  0
   74.3535   57.2593   17.7106 C   0  0  0  0  0  0  0  0  0  0  0  0
   72.2585   56.7470   16.5817 C   0  0  0  0  0  0  0  0  0  0  0  0
   68.0805   51.8465   14.2648 C   0  0  1  0  0  0  0  0  0  0  0  0
   69.4319   52.4776   14.2073 C   0  0  0  0  0  0  0  0  0  0  0  0
   68.0958   56.5998   18.3505 C   0  0  0  0  0  0  0  0  0  0  0  0
   67.4556   57.0784   17.2019 C   0  0  0  0  0  0  0  0  0  0  0  0
   66.2824   57.7512   17.3108 C   0  0  0  0  0  0  0  0  0  0  0  0
   65.6976   57.9767   18.5561 C   0  0  0  0  0  0  0  0  0  0  0  0
   66.3188   57.5103   19.6916 C   0  0  0  0  0  0  0  0  0  0  0  0
   67.5095   56.8264   19.5942 C   0  0  0  0  0  0  0  0  0  0  0  0
   75.1351   62.1574   23.3948 C   0  0  0  0  0  0  0  0  0  0  0  0
   77.3511   56.9500   17.2888 C   0  0  0  0  0  0  0  0  0  0  0  0
   74.9955   56.0992   17.0417 C   0  0  2  0  0  0  0  0  0  0  0  0
   76.4110   55.7896   17.3555 C   0  0  0  0  0  0  0  0  0  0  0  0
   74.7213   56.0901   15.5390 C   0  0  0  0  0  0  0  0  0  0  0  0
   75.4845   62.3065   21.9464 C   0  0  2  0  0  0  0  0  0  0  0  0
   75.4430   57.1371   14.7749 C   0  0  0  0  0  0  0  0  0  0  0  0
   72.9748   57.4068   17.6281 N   0  0  0  0  0  0  0  0  0  0  0  0
   69.4148   54.7709   16.0817 N   0  0  0  0  0  0  0  0  0  0  0  0
   72.0788   59.7740   16.8869 O   0  0  0  0  0  0  0  0  0  0  0  0
   70.9050   58.6435   18.6644 O   0  0  0  0  0  0  0  0  0  0  0  0
   71.8763   55.5267   18.4985 O   0  0  0  0  0  0  0  0  0  0  0  0
   67.4383   55.7353   15.4471 O   0  0  0  0  0  0  0  0  0  0  0  0
   67.2886   53.5193   15.8498 O   0  0  0  0  0  0  0  0  0  0  0  0
   67.2255   52.9046   12.3787 O   0  0  0  0  0  0  0  0  0  0  0  0
   68.9488   51.3775   12.2165 O   0  0  0  0  0  0  0  0  0  0  0  0
   75.7443   63.1044   24.1765 O   0  0  0  0  0  0  0  0  0  0  0  0
   75.2829   63.6627   21.5961 O   0  0  0  0  0  0  0  0  0  0  0  0
   72.3072   58.8545   18.1156 S   0  0  2  0  0  6  0  0  0  0  0  0
  1  2  1  0
 16  1  1  0
  1 36  1  1
  2  8  1  1
  2 33  1  0
 33  3  1  0
  3 37  2  0
  3 38  1  0
  4  5  1  0
  4 17  1  0
  4 38  1  1
  5 39  1  0
 17  6  1  0
  6 39  1  6
  6 40  1  0
 18  7  1  0
  7 40  1  0
  8 19  1  0
 10  9  2  0
 14  9  1  0
  9 30  1  0
 11 10  1  0
 12 11  2  0
 12 13  1  0
 43 12  1  0
 13 14  2  0
 27 15  1  6
 32 15  1  0
 32 16  1  0
 17 18  1  6
 19 20  2  0
 19 24  1  0
 20 21  1  0
 21 22  2  0
 23 22  1  0
 24 23  2  0
 30 25  1  0
 25 41  1  0
 28 26  1  0
 27 28  1  0
 27 29  1  0
 29 31  1  0
 30 42  1  6
 43 32  1  6
 43 34  2  0
 43 35  2  0
M  END
$$$$
