
     RDKit          3D

 43 46  0  0  0  0  0  0  0  0999 V2000
   70.7877   57.6368   15.1282 C   0  0  1  0  0  0  0  0  0  0  0  0
   70.6772   58.0035   16.5552 C   0  0  2  0  0  0  0  0  0  0  0  0
   72.0488   58.5010   18.6167 C   0  0  0  0  0  0  0  0  0  0  0  0
   73.9084   59.4496   19.8440 C   0  0  1  0  0  0  0  0  0  0  0  0
   74.7003   60.2192   18.8321 C   0  0  0  0  0  0  0  0  0  0  0  0
   73.9323   61.7204   20.3123 C   0  0  1  0  0  0  0  0  0  0  0  0
   72.0336   62.3991   19.3559 C   0  0  0  0  0  0  0  0  0  0  0  0
   69.5428   58.8951   16.8349 C   0  0  0  0  0  0  0  0  0  0  0  0
   66.5843   51.6102   13.2422 C   0  0  0  0  0  0  0  0  0  0  0  0
   67.6070   51.1774   14.0330 C   0  0  0  0  0  0  0  0  0  0  0  0
   68.3316   52.0268   14.8782 C   0  0  0  0  0  0  0  0  0  0  0  0
   68.0388   53.3717   14.9522 C   0  0  0  0  0  0  0  0  0  0  0  0
   66.9971   53.8111   14.1459 C   0  0  0  0  0  0  0  0  0  0  0  0
   66.2878   52.9784   13.3184 C   0  0  0  0  0  0  0  0  0  0  0  0
   71.4571   55.1415   15.8420 C   0  0  0  0  0  0  0  0  0  0  0  0
   69.8571   56.5472   14.6631 C   0  0  0  0  0  0  0  0  0  0  0  0
   72.9989   60.5216   20.3999 C   0  0  1  0  0  0  0  0  0  0  0  0
   71.9034   60.9104   19.4636 C   0  0  0  0  0  0  0  0  0  0  0  0
   69.1221   59.1297   18.2061 C   0  0  0  0  0  0  0  0  0  0  0  0
   68.9884   60.4134   18.7469 C   0  0  0  0  0  0  0  0  0  0  0  0
   68.6216   60.5671   20.0441 C   0  0  0  0  0  0  0  0  0  0  0  0
   68.3734   59.4609   20.8554 C   0  0  0  0  0  0  0  0  0  0  0  0
   68.5020   58.1945   20.3335 C   0  0  0  0  0  0  0  0  0  0  0  0
   68.8736   58.0255   19.0188 C   0  0  0  0  0  0  0  0  0  0  0  0
   65.0783   49.6397   13.0502 C   0  0  0  0  0  0  0  0  0  0  0  0
   73.2462   52.7785   13.3317 C   0  0  0  0  0  0  0  0  0  0  0  0
   72.5187   54.4385   15.0777 C   0  0  2  0  0  0  0  0  0  0  0  0
   72.1202   53.4193   14.0774 C   0  0  0  0  0  0  0  0  0  0  0  0
   73.6400   53.9452   15.9902 C   0  0  0  0  0  0  0  0  0  0  0  0
   65.7796   50.7553   12.3391 C   0  0  2  0  0  0  0  0  0  0  0  0
   74.7658   54.8976   16.1527 C   0  0  0  0  0  0  0  0  0  0  0  0
   70.2030   55.2980   15.2659 N   0  0  0  0  0  0  0  0  0  0  0  0
   71.9027   58.1968   17.2486 N   0  0  0  0  0  0  0  0  0  0  0  0
   69.4007   53.6462   17.1590 O   0  0  0  0  0  0  0  0  0  0  0  0
   67.9194   55.4493   16.5505 O   0  0  0  0  0  0  0  0  0  0  0  0
   70.4233   58.7539   14.3179 O   0  0  0  0  0  0  0  0  0  0  0  0
   71.0583   58.9441   19.2406 O   0  0  0  0  0  0  0  0  0  0  0  0
   73.2317   58.3422   19.3352 O   0  0  0  0  0  0  0  0  0  0  0  0
   74.7212   61.5354   19.2107 O   0  0  0  0  0  0  0  0  0  0  0  0
   73.0576   62.7864   20.2087 O   0  0  0  0  0  0  0  0  0  0  0  0
   63.8724   50.0319   13.5708 O   0  0  0  0  0  0  0  0  0  0  0  0
   66.6470   50.1739   11.3840 O   0  0  0  0  0  0  0  0  0  0  0  0
   68.9182   54.4780   15.9414 S   0  0  2  0  0  6  0  0  0  0  0  0
  1  2  1  0
 16  1  1  0
  1 36  1  6
  2  8  1  6
  2 33  1  0
 33  3  1  0
  3 37  2  0
  3 38  1  0
  4  5  1  0
  4 17  1  0
  4 38  1  6
  5 39  1  0
 17  6  1  0
  6 39  1  6
  6 40  1  0
 18  7  1  0
  7 40  1  0
  8 19  1  0
 10  9  2  0
 14  9  1  0
  9 30  1  0
 11 10  1  0
 12 11  2  0
 12 13  1  0
 43 12  1  0
 13 14  2  0
 27 15  1  1
 32 15  1  0
 32 16  1  0
 17 18  1  6
 19 20  2  0
 19 24  1  0
 20 21  1  0
 21 22  2  0
 23 22  1  0
 24 23  2  0
 30 25  1  0
 25 41  1  0
 28 26  1  0
 27 28  1  0
 27 29  1  0
 29 31  1  0
 30 42  1  6
 43 32  1  6
 43 34  2  0
 43 35  2  0
M  END
$$$$
