
     RDKit          3D

 43 46  0  0  0  0  0  0  0  0999 V2000
   70.6070   56.8751   15.6125 C   0  0  1  0  0  0  0  0  0  0  0  0
   70.4353   57.6910   16.8321 C   0  0  2  0  0  0  0  0  0  0  0  0
   72.3579   58.1408   18.4070 C   0  0  0  0  0  0  0  0  0  0  0  0
   74.2963   59.2694   19.3196 C   0  0  1  0  0  0  0  0  0  0  0  0
   75.0117   60.3828   18.6182 C   0  0  0  0  0  0  0  0  0  0  0  0
   74.0861   61.2806   20.4544 C   0  0  1  0  0  0  0  0  0  0  0  0
   72.1339   62.0348   19.6795 C   0  0  0  0  0  0  0  0  0  0  0  0
   69.1078   58.3146   16.9263 C   0  0  0  0  0  0  0  0  0  0  0  0
   72.7392   50.2698   13.9477 C   0  0  0  0  0  0  0  0  0  0  0  0
   72.3367   50.3484   15.2479 C   0  0  0  0  0  0  0  0  0  0  0  0
   71.9046   51.5399   15.8432 C   0  0  0  0  0  0  0  0  0  0  0  0
   71.8651   52.7168   15.1268 C   0  0  0  0  0  0  0  0  0  0  0  0
   72.2757   52.6351   13.8028 C   0  0  0  0  0  0  0  0  0  0  0  0
   72.6987   51.4677   13.2204 C   0  0  0  0  0  0  0  0  0  0  0  0
   68.8398   53.6001   15.6055 C   0  0  0  0  0  0  0  0  0  0  0  0
   69.4770   55.9293   15.2987 C   0  0  0  0  0  0  0  0  0  0  0  0
   73.2791   60.0290   20.1404 C   0  0  1  0  0  0  0  0  0  0  0  0
   72.1553   60.5789   19.3264 C   0  0  0  0  0  0  0  0  0  0  0  0
   68.7347   59.0563   18.1191 C   0  0  0  0  0  0  0  0  0  0  0  0
   68.7586   60.4542   18.1786 C   0  0  0  0  0  0  0  0  0  0  0  0
   68.4287   61.0888   19.3316 C   0  0  0  0  0  0  0  0  0  0  0  0
   68.0633   60.3684   20.4679 C   0  0  0  0  0  0  0  0  0  0  0  0
   68.0367   58.9937   20.4199 C   0  0  0  0  0  0  0  0  0  0  0  0
   68.3693   58.3383   19.2560 C   0  0  0  0  0  0  0  0  0  0  0  0
   74.6861   48.9151   13.1978 C   0  0  0  0  0  0  0  0  0  0  0  0
   65.1240   54.5641   15.0130 C   0  0  0  0  0  0  0  0  0  0  0  0
   67.5527   53.9094   14.9324 C   0  0  2  0  0  0  0  0  0  0  0  0
   66.3841   54.2809   15.7657 C   0  0  0  0  0  0  0  0  0  0  0  0
   67.2006   52.8625   13.8771 C   0  0  0  0  0  0  0  0  0  0  0  0
   73.1952   49.0364   13.2659 C   0  0  2  0  0  0  0  0  0  0  0  0
   67.2738   51.4594   14.3532 C   0  0  0  0  0  0  0  0  0  0  0  0
   69.7626   54.6203   15.7970 N   0  0  0  0  0  0  0  0  0  0  0  0
   71.5780   58.4163   17.2662 N   0  0  0  0  0  0  0  0  0  0  0  0
   72.1980   55.3020   15.0484 O   0  0  0  0  0  0  0  0  0  0  0  0
   71.9411   54.2927   17.2235 O   0  0  0  0  0  0  0  0  0  0  0  0
   70.6539   57.7282   14.4692 O   0  0  0  0  0  0  0  0  0  0  0  0
   71.7852   57.7141   19.4349 O   0  0  0  0  0  0  0  0  0  0  0  0
   73.7389   58.3110   18.4747 O   0  0  0  0  0  0  0  0  0  0  0  0
   74.8963   61.5164   19.3783 O   0  0  0  0  0  0  0  0  0  0  0  0
   73.1082   62.2391   20.6466 O   0  0  0  0  0  0  0  0  0  0  0  0
   75.0989   47.6096   13.1304 O   0  0  0  0  0  0  0  0  0  0  0  0
   72.7075   49.0539   11.9375 O   0  0  0  0  0  0  0  0  0  0  0  0
   71.3821   54.2249   15.8111 S   0  0  2  0  0  6  0  0  0  0  0  0
  1  2  1  0
 16  1  1  0
  1 36  1  6
  2  8  1  6
  2 33  1  0
 33  3  1  0
  3 37  2  0
  3 38  1  0
  4  5  1  0
  4 17  1  0
  4 38  1  6
  5 39  1  0
 17  6  1  0
  6 39  1  6
  6 40  1  0
 18  7  1  0
  7 40  1  0
  8 19  1  0
 10  9  2  0
 14  9  1  0
  9 30  1  0
 11 10  1  0
 12 11  2  0
 12 13  1  0
 43 12  1  0
 13 14  2  0
 27 15  1  1
 32 15  1  0
 32 16  1  0
 17 18  1  6
 19 20  2  0
 19 24  1  0
 20 21  1  0
 21 22  2  0
 23 22  1  0
 24 23  2  0
 30 25  1  0
 25 41  1  0
 28 26  1  0
 27 28  1  0
 27 29  1  0
 29 31  1  0
 30 42  1  6
 43 32  1  1
 43 34  2  0
 43 35  2  0
M  END
$$$$
