
     RDKit          3D

 43 46  0  0  0  0  0  0  0  0999 V2000
   69.2589   57.0199   15.9167 C   0  0  1  0  0  0  0  0  0  0  0  0
   69.4729   57.7928   17.1575 C   0  0  2  0  0  0  0  0  0  0  0  0
   71.6319   59.0880   16.9588 C   0  0  0  0  0  0  0  0  0  0  0  0
   72.4268   60.9656   18.2655 C   0  0  1  0  0  0  0  0  0  0  0  0
   72.0305   60.7361   19.6915 C   0  0  0  0  0  0  0  0  0  0  0  0
   74.2732   60.6928   19.6412 C   0  0  1  0  0  0  0  0  0  0  0  0
   74.6991   58.5155   19.3999 C   0  0  0  0  0  0  0  0  0  0  0  0
   68.4508   58.8260   17.3765 C   0  0  0  0  0  0  0  0  0  0  0  0
   66.5572   51.9614   13.5994 C   0  0  0  0  0  0  0  0  0  0  0  0
   67.5557   51.3793   14.3224 C   0  0  0  0  0  0  0  0  0  0  0  0
   68.3561   52.0869   15.2277 C   0  0  0  0  0  0  0  0  0  0  0  0
   68.1683   53.4366   15.4352 C   0  0  0  0  0  0  0  0  0  0  0  0
   67.1511   54.0280   14.6979 C   0  0  0  0  0  0  0  0  0  0  0  0
   66.3676   53.3342   13.8115 C   0  0  0  0  0  0  0  0  0  0  0  0
   71.7598   54.6120   16.5492 C   0  0  0  0  0  0  0  0  0  0  0  0
   70.4730   56.3118   15.3743 C   0  0  0  0  0  0  0  0  0  0  0  0
   73.8101   60.3568   18.2310 C   0  0  1  0  0  0  0  0  0  0  0  0
   73.7993   58.8644   18.2538 C   0  0  0  0  0  0  0  0  0  0  0  0
   68.1720   59.3008   18.7214 C   0  0  0  0  0  0  0  0  0  0  0  0
   67.9169   60.6460   19.0108 C   0  0  0  0  0  0  0  0  0  0  0  0
   67.6938   61.0327   20.2920 C   0  0  0  0  0  0  0  0  0  0  0  0
   67.7142   60.1074   21.3347 C   0  0  0  0  0  0  0  0  0  0  0  0
   67.9640   58.7825   21.0609 C   0  0  0  0  0  0  0  0  0  0  0  0
   68.1918   58.3777   19.7651 C   0  0  0  0  0  0  0  0  0  0  0  0
   65.7955   49.7687   12.7051 C   0  0  0  0  0  0  0  0  0  0  0  0
   72.4101   51.6096   15.1741 C   0  0  0  0  0  0  0  0  0  0  0  0
   72.8485   54.0253   15.7271 C   0  0  2  0  0  0  0  0  0  0  0  0
   72.4988   53.0221   14.6930 C   0  0  0  0  0  0  0  0  0  0  0  0
   74.0298   53.5807   16.5874 C   0  0  0  0  0  0  0  0  0  0  0  0
   65.6757   51.2597   12.6378 C   0  0  2  0  0  0  0  0  0  0  0  0
   75.2000   53.0885   15.8197 C   0  0  0  0  0  0  0  0  0  0  0  0
   70.5791   54.9981   15.9278 N   0  0  0  0  0  0  0  0  0  0  0  0
   70.8250   58.0669   17.4990 N   0  0  0  0  0  0  0  0  0  0  0  0
   69.4189   53.4536   17.7235 O   0  0  0  0  0  0  0  0  0  0  0  0
   68.2717   55.4759   17.0833 O   0  0  0  0  0  0  0  0  0  0  0  0
   68.3387   55.9580   16.1674 O   0  0  0  0  0  0  0  0  0  0  0  0
   72.4830   58.7836   16.0931 O   0  0  0  0  0  0  0  0  0  0  0  0
   71.5500   60.4301   17.3233 O   0  0  0  0  0  0  0  0  0  0  0  0
   73.1694   60.6493   20.4473 O   0  0  0  0  0  0  0  0  0  0  0  0
   75.2047   59.7054   19.9044 O   0  0  0  0  0  0  0  0  0  0  0  0
   64.8622   49.1365   11.9251 O   0  0  0  0  0  0  0  0  0  0  0  0
   66.0362   51.6582   11.3286 O   0  0  0  0  0  0  0  0  0  0  0  0
   69.1449   54.3738   16.5046 S   0  0  2  0  0  6  0  0  0  0  0  0
  1  2  1  0
 16  1  1  0
  1 36  1  1
  2  8  1  6
  2 33  1  0
 33  3  1  0
  3 37  2  0
  3 38  1  0
  4  5  1  0
  4 17  1  0
  4 38  1  6
  5 39  1  0
 17  6  1  0
  6 39  1  1
  6 40  1  0
 18  7  1  0
  7 40  1  0
  8 19  1  0
 10  9  2  0
 14  9  1  0
  9 30  1  0
 11 10  1  0
 12 11  2  0
 12 13  1  0
 43 12  1  0
 13 14  2  0
 27 15  1  1
 32 15  1  0
 32 16  1  0
 17 18  1  1
 19 20  2  0
 19 24  1  0
 20 21  1  0
 21 22  2  0
 23 22  1  0
 24 23  2  0
 30 25  1  0
 25 41  1  0
 28 26  1  0
 27 28  1  0
 27 29  1  0
 29 31  1  0
 30 42  1  6
 43 32  1  6
 43 34  2  0
 43 35  2  0
M  END
$$$$
