
     RDKit          3D

 43 46  0  0  0  0  0  0  0  0999 V2000
   71.1182   57.8047   14.4117 C   0  0  1  0  0  0  0  0  0  0  0  0
   70.8610   58.2964   15.7810 C   0  0  2  0  0  0  0  0  0  0  0  0
   72.4582   59.5019   17.3219 C   0  0  0  0  0  0  0  0  0  0  0  0
   74.1357   60.5797   18.6961 C   0  0  1  0  0  0  0  0  0  0  0  0
   74.9147   61.8516   18.8333 C   0  0  0  0  0  0  0  0  0  0  0  0
   74.0822   61.3949   20.8662 C   0  0  1  0  0  0  0  0  0  0  0  0
   72.1744   62.5528   20.8672 C   0  0  0  0  0  0  0  0  0  0  0  0
   69.4487   58.1931   16.1746 C   0  0  0  0  0  0  0  0  0  0  0  0
   70.8623   56.4997   20.8646 C   0  0  0  0  0  0  0  0  0  0  0  0
   70.2781   55.3845   20.3413 C   0  0  0  0  0  0  0  0  0  0  0  0
   70.4795   54.9645   19.0207 C   0  0  0  0  0  0  0  0  0  0  0  0
   71.2962   55.6751   18.1675 C   0  0  0  0  0  0  0  0  0  0  0  0
   71.8902   56.8108   18.7019 C   0  0  0  0  0  0  0  0  0  0  0  0
   71.6926   57.2214   19.9955 C   0  0  0  0  0  0  0  0  0  0  0  0
   69.2532   54.9696   15.2815 C   0  0  0  0  0  0  0  0  0  0  0  0
   70.9795   56.3170   14.2184 C   0  0  0  0  0  0  0  0  0  0  0  0
   73.1862   60.6749   19.8686 C   0  0  1  0  0  0  0  0  0  0  0  0
   72.0901   61.6668   19.6619 C   0  0  0  0  0  0  0  0  0  0  0  0
   69.0088   58.7241   17.4539 C   0  0  0  0  0  0  0  0  0  0  0  0
   68.7194   57.9070   18.5525 C   0  0  0  0  0  0  0  0  0  0  0  0
   68.2826   58.4603   19.7118 C   0  0  0  0  0  0  0  0  0  0  0  0
   68.1151   59.8393   19.8302 C   0  0  0  0  0  0  0  0  0  0  0  0
   68.3969   60.6515   18.7560 C   0  0  0  0  0  0  0  0  0  0  0  0
   68.8407   60.1020   17.5745 C   0  0  0  0  0  0  0  0  0  0  0  0
   71.9826   57.3729   22.9067 C   0  0  0  0  0  0  0  0  0  0  0  0
   66.7542   53.0774   14.1374 C   0  0  0  0  0  0  0  0  0  0  0  0
   69.0573   54.0912   14.1003 C   0  0  2  0  0  0  0  0  0  0  0  0
   68.2303   52.8699   14.2500 C   0  0  0  0  0  0  0  0  0  0  0  0
   70.3743   53.8125   13.3783 C   0  0  0  0  0  0  0  0  0  0  0  0
   70.6924   56.9831   22.2543 C   0  0  2  0  0  0  0  0  0  0  0  0
   70.2592   52.8913   12.2211 C   0  0  0  0  0  0  0  0  0  0  0  0
   70.4258   55.7067   15.3864 N   0  0  0  0  0  0  0  0  0  0  0  0
   71.6182   59.4264   16.1930 N   0  0  0  0  0  0  0  0  0  0  0  0
   71.6875   53.6889   16.5236 O   0  0  0  0  0  0  0  0  0  0  0  0
   72.9440   55.7085   16.1257 O   0  0  0  0  0  0  0  0  0  0  0  0
   70.1469   58.3482   13.5182 O   0  0  0  0  0  0  0  0  0  0  0  0
   72.2668   58.7017   18.2651 O   0  0  0  0  0  0  0  0  0  0  0  0
   73.5003   60.4149   17.4663 O   0  0  0  0  0  0  0  0  0  0  0  0
   74.8895   62.2334   20.1484 O   0  0  0  0  0  0  0  0  0  0  0  0
   73.1756   62.0450   21.6832 O   0  0  0  0  0  0  0  0  0  0  0  0
   72.3057   58.6851   22.6766 O   0  0  0  0  0  0  0  0  0  0  0  0
   70.1232   55.9405   23.0235 O   0  0  0  0  0  0  0  0  0  0  0  0
   71.5539   55.2348   16.5196 S   0  0  2  0  0  6  0  0  0  0  0  0
  1  2  1  0
 16  1  1  0
  1 36  1  6
  2  8  1  6
  2 33  1  0
 33  3  1  0
  3 37  2  0
  3 38  1  0
  4  5  1  0
  4 17  1  0
  4 38  1  6
  5 39  1  0
 17  6  1  0
  6 39  1  6
  6 40  1  0
 18  7  1  0
  7 40  1  0
  8 19  1  0
 10  9  2  0
 14  9  1  0
  9 30  1  0
 11 10  1  0
 12 11  2  0
 12 13  1  0
 43 12  1  0
 13 14  2  0
 27 15  1  1
 32 15  1  0
 32 16  1  0
 17 18  1  6
 19 20  2  0
 19 24  1  0
 20 21  1  0
 21 22  2  0
 23 22  1  0
 24 23  2  0
 30 25  1  0
 25 41  1  0
 28 26  1  0
 27 28  1  0
 27 29  1  0
 29 31  1  0
 30 42  1  1
 43 32  1  6
 43 34  2  0
 43 35  2  0
M  END
$$$$
