
     RDKit          3D

 43 46  0  0  0  0  0  0  0  0999 V2000
   70.9271   57.3751   15.4461 C   0  0  1  0  0  0  0  0  0  0  0  0
   70.6389   57.9201   16.7887 C   0  0  2  0  0  0  0  0  0  0  0  0
   72.4507   58.2405   18.5189 C   0  0  0  0  0  0  0  0  0  0  0  0
   74.2766   59.4277   19.5778 C   0  0  1  0  0  0  0  0  0  0  0  0
   74.9510   60.6126   18.9578 C   0  0  0  0  0  0  0  0  0  0  0  0
   73.8952   61.3687   20.7875 C   0  0  1  0  0  0  0  0  0  0  0  0
   71.9347   62.0398   19.9591 C   0  0  0  0  0  0  0  0  0  0  0  0
   69.2530   58.3869   16.9359 C   0  0  0  0  0  0  0  0  0  0  0  0
   66.6913   51.2180   13.8399 C   0  0  0  0  0  0  0  0  0  0  0  0
   67.6063   50.8362   14.7756 C   0  0  0  0  0  0  0  0  0  0  0  0
   68.3270   51.7483   15.5564 C   0  0  0  0  0  0  0  0  0  0  0  0
   68.1414   53.1065   15.4124 C   0  0  0  0  0  0  0  0  0  0  0  0
   67.2094   53.4938   14.4587 C   0  0  0  0  0  0  0  0  0  0  0  0
   66.5039   52.5998   13.6945 C   0  0  0  0  0  0  0  0  0  0  0  0
   71.5815   54.8476   16.1065 C   0  0  0  0  0  0  0  0  0  0  0  0
   69.9907   56.2961   14.9677 C   0  0  0  0  0  0  0  0  0  0  0  0
   73.1807   60.0869   20.3840 C   0  0  1  0  0  0  0  0  0  0  0  0
   72.0606   60.6055   19.5448 C   0  0  0  0  0  0  0  0  0  0  0  0
   68.7891   58.8987   18.2146 C   0  0  0  0  0  0  0  0  0  0  0  0
   68.6011   60.2636   18.4594 C   0  0  0  0  0  0  0  0  0  0  0  0
   68.1955   60.6823   19.6846 C   0  0  0  0  0  0  0  0  0  0  0  0
   67.9606   59.7708   20.7130 C   0  0  0  0  0  0  0  0  0  0  0  0
   68.1426   58.4267   20.4826 C   0  0  0  0  0  0  0  0  0  0  0  0
   68.5538   57.9894   19.2438 C   0  0  0  0  0  0  0  0  0  0  0  0
   66.5943   49.9009   11.7318 C   0  0  0  0  0  0  0  0  0  0  0  0
   74.4494   53.4113   16.9691 C   0  0  0  0  0  0  0  0  0  0  0  0
   72.4913   53.8704   15.4563 C   0  0  2  0  0  0  0  0  0  0  0  0
   73.9508   53.9937   15.6859 C   0  0  0  0  0  0  0  0  0  0  0  0
   72.1528   53.6788   13.9791 C   0  0  0  0  0  0  0  0  0  0  0  0
   65.8954   50.2975   12.9953 C   0  0  2  0  0  0  0  0  0  0  0  0
   73.0181   52.7042   13.2703 C   0  0  0  0  0  0  0  0  0  0  0  0
   70.3127   55.0434   15.5764 N   0  0  0  0  0  0  0  0  0  0  0  0
   71.6896   58.6513   17.4064 N   0  0  0  0  0  0  0  0  0  0  0  0
   69.5055   53.5452   17.5912 O   0  0  0  0  0  0  0  0  0  0  0  0
   68.0304   55.3014   16.8461 O   0  0  0  0  0  0  0  0  0  0  0  0
   70.7750   58.4046   14.4693 O   0  0  0  0  0  0  0  0  0  0  0  0
   71.8755   57.6208   19.4418 O   0  0  0  0  0  0  0  0  0  0  0  0
   73.8153   58.4773   18.6682 O   0  0  0  0  0  0  0  0  0  0  0  0
   74.7340   61.7014   19.7600 O   0  0  0  0  0  0  0  0  0  0  0  0
   72.8528   62.2573   20.9768 O   0  0  0  0  0  0  0  0  0  0  0  0
   67.4595   48.8550   11.9227 O   0  0  0  0  0  0  0  0  0  0  0  0
   64.6942   50.9511   12.6314 O   0  0  0  0  0  0  0  0  0  0  0  0
   69.0253   54.2825   16.3132 S   0  0  2  0  0  6  0  0  0  0  0  0
  1  2  1  0
 16  1  1  0
  1 36  1  6
  2  8  1  6
  2 33  1  0
 33  3  1  0
  3 37  2  0
  3 38  1  0
  4  5  1  0
  4 17  1  0
  4 38  1  6
  5 39  1  0
 17  6  1  0
  6 39  1  6
  6 40  1  0
 18  7  1  0
  7 40  1  0
  8 19  1  0
 10  9  2  0
 14  9  1  0
  9 30  1  0
 11 10  1  0
 12 11  2  0
 12 13  1  0
 43 12  1  0
 13 14  2  0
 27 15  1  6
 32 15  1  0
 32 16  1  0
 17 18  1  6
 19 20  2  0
 19 24  1  0
 20 21  1  0
 21 22  2  0
 23 22  1  0
 24 23  2  0
 30 25  1  0
 25 41  1  0
 28 26  1  0
 27 28  1  0
 27 29  1  0
 29 31  1  0
 30 42  1  6
 43 32  1  6
 43 34  2  0
 43 35  2  0
M  END
$$$$
