
     RDKit          3D

 43 46  0  0  0  0  0  0  0  0999 V2000
   70.9831   57.0536   15.0334 C   0  0  1  0  0  0  0  0  0  0  0  0
   71.6530   57.0882   16.3497 C   0  0  2  0  0  0  0  0  0  0  0  0
   72.3166   58.6392   18.2293 C   0  0  0  0  0  0  0  0  0  0  0  0
   73.1394   60.7298   19.1331 C   0  0  1  0  0  0  0  0  0  0  0  0
   73.3504   61.9621   18.3084 C   0  0  0  0  0  0  0  0  0  0  0  0
   71.6820   62.4303   19.7337 C   0  0  1  0  0  0  0  0  0  0  0  0
   69.8737   61.9225   18.5285 C   0  0  0  0  0  0  0  0  0  0  0  0
   71.3481   55.9162   17.1826 C   0  0  0  0  0  0  0  0  0  0  0  0
   66.1707   51.1023   13.4149 C   0  0  0  0  0  0  0  0  0  0  0  0
   65.8435   52.3833   13.7475 C   0  0  0  0  0  0  0  0  0  0  0  0
   66.7103   53.2384   14.4391 C   0  0  0  0  0  0  0  0  0  0  0  0
   67.9640   52.8158   14.8257 C   0  0  0  0  0  0  0  0  0  0  0  0
   68.2957   51.5107   14.4866 C   0  0  0  0  0  0  0  0  0  0  0  0
   67.4461   50.6738   13.8090 C   0  0  0  0  0  0  0  0  0  0  0  0
   71.4100   54.4510   14.7291 C   0  0  0  0  0  0  0  0  0  0  0  0
   69.7395   56.2065   14.9589 C   0  0  0  0  0  0  0  0  0  0  0  0
   71.7133   60.9146   19.5995 C   0  0  1  0  0  0  0  0  0  0  0  0
   70.7050   60.6760   18.5251 C   0  0  0  0  0  0  0  0  0  0  0  0
   72.4129   55.2370   17.9015 C   0  0  0  0  0  0  0  0  0  0  0  0
   73.4186   54.5106   17.2541 C   0  0  0  0  0  0  0  0  0  0  0  0
   74.3687   53.8719   17.9825 C   0  0  0  0  0  0  0  0  0  0  0  0
   74.3618   53.9262   19.3756 C   0  0  0  0  0  0  0  0  0  0  0  0
   73.3774   54.6377   20.0217 C   0  0  0  0  0  0  0  0  0  0  0  0
   72.4080   55.2899   19.2939 C   0  0  0  0  0  0  0  0  0  0  0  0
   63.8466   50.5213   12.7449 C   0  0  0  0  0  0  0  0  0  0  0  0
   74.1072   52.8224   14.5309 C   0  0  0  0  0  0  0  0  0  0  0  0
   71.7583   53.3488   13.7968 C   0  0  2  0  0  0  0  0  0  0  0  0
   73.1777   53.1636   13.4110 C   0  0  0  0  0  0  0  0  0  0  0  0
   70.8219   53.3114   12.5904 C   0  0  0  0  0  0  0  0  0  0  0  0
   65.2981   50.1599   12.6768 C   0  0  2  0  0  0  0  0  0  0  0  0
   71.4685   52.8956   11.3216 C   0  0  0  0  0  0  0  0  0  0  0  0
   70.0784   54.8208   14.8682 N   0  0  0  0  0  0  0  0  0  0  0  0
   71.7671   58.3664   16.9607 N   0  0  0  0  0  0  0  0  0  0  0  0
   69.8962   52.8202   16.5770 O   0  0  0  0  0  0  0  0  0  0  0  0
   68.2582   54.5822   16.7437 O   0  0  0  0  0  0  0  0  0  0  0  0
   70.5160   58.3604   14.7001 O   0  0  0  0  0  0  0  0  0  0  0  0
   71.8437   58.0483   19.2262 O   0  0  0  0  0  0  0  0  0  0  0  0
   73.3623   59.5310   18.4575 O   0  0  0  0  0  0  0  0  0  0  0  0
   72.5018   62.9363   18.7633 O   0  0  0  0  0  0  0  0  0  0  0  0
   70.3436   62.7289   19.5556 O   0  0  0  0  0  0  0  0  0  0  0  0
   63.0629   49.6645   12.0163 O   0  0  0  0  0  0  0  0  0  0  0  0
   65.4450   48.8739   13.2488 O   0  0  0  0  0  0  0  0  0  0  0  0
   69.0631   53.8047   15.7143 S   0  0  2  0  0  6  0  0  0  0  0  0
  1  2  1  0
 16  1  1  0
  1 36  1  1
  2  8  1  1
  2 33  1  0
 33  3  1  0
  3 37  2  0
  3 38  1  0
  4  5  1  0
  4 17  1  0
  4 38  1  6
  5 39  1  0
 17  6  1  0
  6 39  1  6
  6 40  1  0
 18  7  1  0
  7 40  1  0
  8 19  1  0
 10  9  2  0
 14  9  1  0
  9 30  1  0
 11 10  1  0
 12 11  2  0
 12 13  1  0
 43 12  1  0
 13 14  2  0
 27 15  1  6
 32 15  1  0
 32 16  1  0
 17 18  1  6
 19 20  2  0
 19 24  1  0
 20 21  1  0
 21 22  2  0
 23 22  1  0
 24 23  2  0
 30 25  1  0
 25 41  1  0
 28 26  1  0
 27 28  1  0
 27 29  1  0
 29 31  1  0
 30 42  1  1
 43 32  1  6
 43 34  2  0
 43 35  2  0
M  END
$$$$
