
     RDKit          3D

 43 46  0  0  0  0  0  0  0  0999 V2000
   71.2665   56.9854   15.0613 C   0  0  1  0  0  0  0  0  0  0  0  0
   70.9134   57.3799   16.4406 C   0  0  2  0  0  0  0  0  0  0  0  0
   71.9138   58.0843   18.6501 C   0  0  0  0  0  0  0  0  0  0  0  0
   73.6143   59.2435   19.9262 C   0  0  1  0  0  0  0  0  0  0  0  0
   74.1982   60.0434   18.8026 C   0  0  0  0  0  0  0  0  0  0  0  0
   73.4794   61.5232   20.3283 C   0  0  1  0  0  0  0  0  0  0  0  0
   71.4212   61.9892   19.6023 C   0  0  0  0  0  0  0  0  0  0  0  0
   69.6606   58.1444   16.5185 C   0  0  0  0  0  0  0  0  0  0  0  0
   65.9861   51.3599   13.5260 C   0  0  0  0  0  0  0  0  0  0  0  0
   66.9752   50.9935   14.3897 C   0  0  0  0  0  0  0  0  0  0  0  0
   67.8428   51.9128   14.9923 C   0  0  0  0  0  0  0  0  0  0  0  0
   67.7357   53.2626   14.7346 C   0  0  0  0  0  0  0  0  0  0  0  0
   66.7280   53.6342   13.8544 C   0  0  0  0  0  0  0  0  0  0  0  0
   65.8786   52.7331   13.2647 C   0  0  0  0  0  0  0  0  0  0  0  0
   71.2940   54.2229   14.6279 C   0  0  0  0  0  0  0  0  0  0  0  0
   70.1595   56.3457   14.2645 C   0  0  0  0  0  0  0  0  0  0  0  0
   72.6824   60.2483   20.5645 C   0  0  1  0  0  0  0  0  0  0  0  0
   71.4477   60.4999   19.7645 C   0  0  0  0  0  0  0  0  0  0  0  0
   69.0811   58.4625   17.8127 C   0  0  0  0  0  0  0  0  0  0  0  0
   68.6282   57.4802   18.7006 C   0  0  0  0  0  0  0  0  0  0  0  0
   68.0677   57.8416   19.8822 C   0  0  0  0  0  0  0  0  0  0  0  0
   67.9332   59.1845   20.2315 C   0  0  0  0  0  0  0  0  0  0  0  0
   68.3751   60.1581   19.3657 C   0  0  0  0  0  0  0  0  0  0  0  0
   68.9456   59.8041   18.1639 C   0  0  0  0  0  0  0  0  0  0  0  0
   65.6789   49.5624   11.8341 C   0  0  0  0  0  0  0  0  0  0  0  0
   73.8389   52.7087   13.9678 C   0  0  0  0  0  0  0  0  0  0  0  0
   72.5681   54.8664   14.2185 C   0  0  2  0  0  0  0  0  0  0  0  0
   73.5468   54.0745   13.4354 C   0  0  0  0  0  0  0  0  0  0  0  0
   73.2243   55.6109   15.3798 C   0  0  0  0  0  0  0  0  0  0  0  0
   65.0359   50.4324   12.8694 C   0  0  2  0  0  0  0  0  0  0  0  0
   74.5783   55.1220   15.7383 C   0  0  0  0  0  0  0  0  0  0  0  0
   70.1093   54.9386   14.5113 N   0  0  0  0  0  0  0  0  0  0  0  0
   71.9985   57.7324   17.2882 N   0  0  0  0  0  0  0  0  0  0  0  0
   69.2758   53.8384   16.7587 O   0  0  0  0  0  0  0  0  0  0  0  0
   67.9542   55.6332   15.8382 O   0  0  0  0  0  0  0  0  0  0  0  0
   71.5950   58.1477   14.3008 O   0  0  0  0  0  0  0  0  0  0  0  0
   70.8057   58.4438   19.1078 O   0  0  0  0  0  0  0  0  0  0  0  0
   72.9885   58.0606   19.5361 O   0  0  0  0  0  0  0  0  0  0  0  0
   74.1402   61.3693   19.1410 O   0  0  0  0  0  0  0  0  0  0  0  0
   72.5011   62.5002   20.3084 O   0  0  0  0  0  0  0  0  0  0  0  0
   66.1334   48.3801   12.3580 O   0  0  0  0  0  0  0  0  0  0  0  0
   64.0380   51.1993   12.2225 O   0  0  0  0  0  0  0  0  0  0  0  0
   68.7972   54.4418   15.4117 S   0  0  2  0  0  6  0  0  0  0  0  0
  1  2  1  0
 16  1  1  0
  1 36  1  6
  2  8  1  6
  2 33  1  0
 33  3  1  0
  3 37  2  0
  3 38  1  0
  4  5  1  0
  4 17  1  0
  4 38  1  6
  5 39  1  0
 17  6  1  0
  6 39  1  6
  6 40  1  0
 18  7  1  0
  7 40  1  0
  8 19  1  0
 10  9  2  0
 14  9  1  0
  9 30  1  0
 11 10  1  0
 12 11  2  0
 12 13  1  0
 43 12  1  0
 13 14  2  0
 27 15  1  1
 32 15  1  0
 32 16  1  0
 17 18  1  6
 19 20  2  0
 19 24  1  0
 20 21  1  0
 21 22  2  0
 23 22  1  0
 24 23  2  0
 30 25  1  0
 25 41  1  0
 28 26  1  0
 27 28  1  0
 27 29  1  0
 29 31  1  0
 30 42  1  6
 43 32  1  6
 43 34  2  0
 43 35  2  0
M  END
$$$$
