
     RDKit          3D

 43 46  0  0  0  0  0  0  0  0999 V2000
   70.6080   57.5061   15.6043 C   0  0  1  0  0  0  0  0  0  0  0  0
   70.3622   58.1613   16.9055 C   0  0  2  0  0  0  0  0  0  0  0  0
   72.4926   58.3798   18.2444 C   0  0  0  0  0  0  0  0  0  0  0  0
   74.3079   59.7012   19.1516 C   0  0  1  0  0  0  0  0  0  0  0  0
   75.0422   60.8837   18.5986 C   0  0  0  0  0  0  0  0  0  0  0  0
   74.0034   61.5937   20.4564 C   0  0  1  0  0  0  0  0  0  0  0  0
   72.0843   62.3961   19.6481 C   0  0  0  0  0  0  0  0  0  0  0  0
   68.9969   58.6894   17.0361 C   0  0  0  0  0  0  0  0  0  0  0  0
   66.6856   51.4826   13.5615 C   0  0  0  0  0  0  0  0  0  0  0  0
   67.7116   51.1290   14.3867 C   0  0  0  0  0  0  0  0  0  0  0  0
   68.4979   52.0634   15.0719 C   0  0  0  0  0  0  0  0  0  0  0  0
   68.2670   53.4159   14.9412 C   0  0  0  0  0  0  0  0  0  0  0  0
   67.2219   53.7745   14.1000 C   0  0  0  0  0  0  0  0  0  0  0  0
   66.4522   52.8587   13.4294 C   0  0  0  0  0  0  0  0  0  0  0  0
   71.2655   54.3144   14.1017 C   0  0  0  0  0  0  0  0  0  0  0  0
   71.3134   56.1765   15.6689 C   0  0  0  0  0  0  0  0  0  0  0  0
   73.2352   60.3685   19.9819 C   0  0  1  0  0  0  0  0  0  0  0  0
   72.1486   60.9804   19.1617 C   0  0  0  0  0  0  0  0  0  0  0  0
   68.5511   59.2503   18.3005 C   0  0  0  0  0  0  0  0  0  0  0  0
   69.3483   59.2505   19.4506 C   0  0  0  0  0  0  0  0  0  0  0  0
   68.8638   59.7615   20.6104 C   0  0  0  0  0  0  0  0  0  0  0  0
   67.5758   60.2908   20.6786 C   0  0  0  0  0  0  0  0  0  0  0  0
   66.7840   60.2953   19.5536 C   0  0  0  0  0  0  0  0  0  0  0  0
   67.2641   59.7798   18.3710 C   0  0  0  0  0  0  0  0  0  0  0  0
   64.3582   50.8452   12.9575 C   0  0  0  0  0  0  0  0  0  0  0  0
   72.5911   51.6876   13.5529 C   0  0  0  0  0  0  0  0  0  0  0  0
   72.7140   54.0786   14.3284 C   0  0  2  0  0  0  0  0  0  0  0  0
   73.3741   52.9595   13.6143 C   0  0  0  0  0  0  0  0  0  0  0  0
   73.0650   54.1027   15.8149 C   0  0  0  0  0  0  0  0  0  0  0  0
   65.8174   50.5376   12.8218 C   0  0  2  0  0  0  0  0  0  0  0  0
   74.4089   53.5645   16.1392 C   0  0  0  0  0  0  0  0  0  0  0  0
   70.5840   55.1835   14.9440 N   0  0  0  0  0  0  0  0  0  0  0  0
   71.4490   58.8970   17.4512 N   0  0  0  0  0  0  0  0  0  0  0  0
   69.6147   54.0043   17.0948 O   0  0  0  0  0  0  0  0  0  0  0  0
   68.3032   55.7685   16.1031 O   0  0  0  0  0  0  0  0  0  0  0  0
   69.3615   57.1916   14.9843 O   0  0  0  0  0  0  0  0  0  0  0  0
   72.2305   57.4631   19.0552 O   0  0  0  0  0  0  0  0  0  0  0  0
   73.8129   58.8209   18.1908 O   0  0  0  0  0  0  0  0  0  0  0  0
   74.8670   61.9391   19.4540 O   0  0  0  0  0  0  0  0  0  0  0  0
   73.0010   62.5188   20.6829 O   0  0  0  0  0  0  0  0  0  0  0  0
   63.5725   49.9447   12.2861 O   0  0  0  0  0  0  0  0  0  0  0  0
   66.0293   49.2376   13.3394 O   0  0  0  0  0  0  0  0  0  0  0  0
   69.2236   54.6188   15.7248 S   0  0  2  0  0  6  0  0  0  0  0  0
  1  2  1  0
 16  1  1  0
  1 36  1  1
  2  8  1  6
  2 33  1  0
 33  3  1  0
  3 37  2  0
  3 38  1  0
  4  5  1  0
  4 17  1  0
  4 38  1  6
  5 39  1  0
 17  6  1  0
  6 39  1  6
  6 40  1  0
 18  7  1  0
  7 40  1  0
  8 19  1  0
 10  9  2  0
 14  9  1  0
  9 30  1  0
 11 10  1  0
 12 11  2  0
 12 13  1  0
 43 12  1  0
 13 14  2  0
 27 15  1  1
 32 15  1  0
 32 16  1  0
 17 18  1  6
 19 20  2  0
 19 24  1  0
 20 21  1  0
 21 22  2  0
 23 22  1  0
 24 23  2  0
 30 25  1  0
 25 41  1  0
 28 26  1  0
 27 28  1  0
 27 29  1  0
 29 31  1  0
 30 42  1  1
 43 32  1  6
 43 34  2  0
 43 35  2  0
M  END
$$$$
