
     RDKit          3D

 43 46  0  0  0  0  0  0  0  0999 V2000
   70.6749   57.1268   14.6792 C   0  0  1  0  0  0  0  0  0  0  0  0
   70.7091   57.4318   16.1244 C   0  0  2  0  0  0  0  0  0  0  0  0
   72.4571   57.9557   17.8705 C   0  0  0  0  0  0  0  0  0  0  0  0
   74.2260   58.9553   19.1881 C   0  0  1  0  0  0  0  0  0  0  0  0
   75.2987   59.9437   18.8482 C   0  0  0  0  0  0  0  0  0  0  0  0
   74.0044   60.9200   20.3994 C   0  0  1  0  0  0  0  0  0  0  0  0
   72.5469   62.0589   19.1508 C   0  0  0  0  0  0  0  0  0  0  0  0
   69.8936   58.5998   16.4864 C   0  0  0  0  0  0  0  0  0  0  0  0
   72.8503   50.1671   14.7586 C   0  0  0  0  0  0  0  0  0  0  0  0
   71.8724   50.4176   15.6749 C   0  0  0  0  0  0  0  0  0  0  0  0
   71.4277   51.7089   15.9842 C   0  0  0  0  0  0  0  0  0  0  0  0
   71.9702   52.8133   15.3631 C   0  0  0  0  0  0  0  0  0  0  0  0
   72.9664   52.5566   14.4303 C   0  0  0  0  0  0  0  0  0  0  0  0
   73.4013   51.2915   14.1278 C   0  0  0  0  0  0  0  0  0  0  0  0
   68.9215   53.9932   15.4538 C   0  0  0  0  0  0  0  0  0  0  0  0
   69.8904   55.9003   14.2920 C   0  0  0  0  0  0  0  0  0  0  0  0
   73.1423   59.8563   19.7350 C   0  0  1  0  0  0  0  0  0  0  0  0
   72.4379   60.6411   18.6787 C   0  0  0  0  0  0  0  0  0  0  0  0
   69.5676   58.8566   17.8791 C   0  0  0  0  0  0  0  0  0  0  0  0
   68.7945   59.9500   18.2855 C   0  0  0  0  0  0  0  0  0  0  0  0
   68.5500   60.1538   19.6045 C   0  0  0  0  0  0  0  0  0  0  0  0
   69.0588   59.2872   20.5708 C   0  0  0  0  0  0  0  0  0  0  0  0
   69.8201   58.2093   20.1817 C   0  0  0  0  0  0  0  0  0  0  0  0
   70.0751   57.9918   18.8466 C   0  0  0  0  0  0  0  0  0  0  0  0
   72.9073   48.3836   13.0255 C   0  0  0  0  0  0  0  0  0  0  0  0
   66.4422   55.0919   17.2575 C   0  0  0  0  0  0  0  0  0  0  0  0
   67.5390   54.4037   15.0995 C   0  0  2  0  0  0  0  0  0  0  0  0
   66.8920   55.4810   15.8860 C   0  0  0  0  0  0  0  0  0  0  0  0
   66.6222   53.1969   14.9088 C   0  0  0  0  0  0  0  0  0  0  0  0
   73.3508   48.8236   14.3863 C   0  0  2  0  0  0  0  0  0  0  0  0
   67.0464   52.2645   13.8357 C   0  0  0  0  0  0  0  0  0  0  0  0
   69.9522   54.9155   15.3263 N   0  0  0  0  0  0  0  0  0  0  0  0
   71.9524   57.2201   16.7797 N   0  0  0  0  0  0  0  0  0  0  0  0
   72.5374   55.3347   15.0152 O   0  0  0  0  0  0  0  0  0  0  0  0
   71.7701   54.6729   17.2036 O   0  0  0  0  0  0  0  0  0  0  0  0
   70.0094   58.1806   13.9837 O   0  0  0  0  0  0  0  0  0  0  0  0
   71.6454   58.4697   18.6727 O   0  0  0  0  0  0  0  0  0  0  0  0
   73.8122   58.1550   18.1244 O   0  0  0  0  0  0  0  0  0  0  0  0
   75.1388   61.0455   19.6461 O   0  0  0  0  0  0  0  0  0  0  0  0
   73.1877   62.0356   20.3816 O   0  0  0  0  0  0  0  0  0  0  0  0
   73.5110   47.2168   12.6340 O   0  0  0  0  0  0  0  0  0  0  0  0
   72.8519   47.8861   15.3216 O   0  0  0  0  0  0  0  0  0  0  0  0
   71.4962   54.4314   15.7275 S   0  0  2  0  0  6  0  0  0  0  0  0
  1  2  1  0
 16  1  1  0
  1 36  1  6
  2  8  1  6
  2 33  1  0
 33  3  1  0
  3 37  2  0
  3 38  1  0
  4  5  1  0
  4 17  1  0
  4 38  1  6
  5 39  1  0
 17  6  1  0
  6 39  1  6
  6 40  1  0
 18  7  1  0
  7 40  1  0
  8 19  1  0
 10  9  2  0
 14  9  1  0
  9 30  1  0
 11 10  1  0
 12 11  2  0
 12 13  1  0
 43 12  1  0
 13 14  2  0
 27 15  1  1
 32 15  1  0
 32 16  1  0
 17 18  1  6
 19 20  2  0
 19 24  1  0
 20 21  1  0
 21 22  2  0
 23 22  1  0
 24 23  2  0
 30 25  1  0
 25 41  1  0
 28 26  1  0
 27 28  1  0
 27 29  1  0
 29 31  1  0
 30 42  1  1
 43 32  1  6
 43 34  2  0
 43 35  2  0
M  END
$$$$
