
     RDKit          3D

 43 46  0  0  0  0  0  0  0  0999 V2000
   70.3688   57.0391   15.3556 C   0  0  1  0  0  0  0  0  0  0  0  0
   70.3224   57.5111   16.7548 C   0  0  2  0  0  0  0  0  0  0  0  0
   72.3854   58.8629   17.2983 C   0  0  0  0  0  0  0  0  0  0  0  0
   74.0424   59.1359   19.0430 C   0  0  1  0  0  0  0  0  0  0  0  0
   75.3578   59.8161   19.2673 C   0  0  0  0  0  0  0  0  0  0  0  0
   73.9933   60.5178   20.9044 C   0  0  1  0  0  0  0  0  0  0  0  0
   73.1557   62.4005   20.0476 C   0  0  0  0  0  0  0  0  0  0  0  0
   69.2279   58.4589   17.0074 C   0  0  0  0  0  0  0  0  0  0  0  0
   71.1383   49.2732   15.9658 C   0  0  0  0  0  0  0  0  0  0  0  0
   69.9471   49.9101   16.1503 C   0  0  0  0  0  0  0  0  0  0  0  0
   69.8303   51.3031   16.2332 C   0  0  0  0  0  0  0  0  0  0  0  0
   70.9394   52.1149   16.1304 C   0  0  0  0  0  0  0  0  0  0  0  0
   72.1519   51.4647   15.9430 C   0  0  0  0  0  0  0  0  0  0  0  0
   72.2655   50.1003   15.8617 C   0  0  0  0  0  0  0  0  0  0  0  0
   71.1139   54.0781   13.6612 C   0  0  0  0  0  0  0  0  0  0  0  0
   71.4645   56.0553   15.0373 C   0  0  0  0  0  0  0  0  0  0  0  0
   73.0918   60.0631   19.7656 C   0  0  1  0  0  0  0  0  0  0  0  0
   72.8439   61.3409   19.0352 C   0  0  0  0  0  0  0  0  0  0  0  0
   68.8521   58.7904   18.3716 C   0  0  0  0  0  0  0  0  0  0  0  0
   67.7963   59.6571   18.6757 C   0  0  0  0  0  0  0  0  0  0  0  0
   67.5136   59.9522   19.9695 C   0  0  0  0  0  0  0  0  0  0  0  0
   68.2614   59.4039   21.0105 C   0  0  0  0  0  0  0  0  0  0  0  0
   69.3015   58.5507   20.7222 C   0  0  0  0  0  0  0  0  0  0  0  0
   69.5983   58.2435   19.4136 C   0  0  0  0  0  0  0  0  0  0  0  0
   72.1797   47.2373   16.9449 C   0  0  0  0  0  0  0  0  0  0  0  0
   68.1066   54.5852   11.2559 C   0  0  0  0  0  0  0  0  0  0  0  0
   70.2998   54.4786   12.4856 C   0  0  2  0  0  0  0  0  0  0  0  0
   68.8604   54.1242   12.4617 C   0  0  0  0  0  0  0  0  0  0  0  0
   71.0002   54.1401   11.1710 C   0  0  0  0  0  0  0  0  0  0  0  0
   71.3176   47.8066   15.8610 C   0  0  2  0  0  0  0  0  0  0  0  0
   71.5541   52.7654   11.1044 C   0  0  0  0  0  0  0  0  0  0  0  0
   70.9279   54.7413   14.8674 N   0  0  0  0  0  0  0  0  0  0  0  0
   71.5781   57.7117   17.3898 N   0  0  0  0  0  0  0  0  0  0  0  0
   72.0459   54.2208   17.1988 O   0  0  0  0  0  0  0  0  0  0  0  0
   69.6374   54.1841   17.0837 O   0  0  0  0  0  0  0  0  0  0  0  0
   69.1752   56.3165   15.0550 O   0  0  0  0  0  0  0  0  0  0  0  0
   71.8866   59.9077   16.8226 O   0  0  0  0  0  0  0  0  0  0  0  0
   73.7166   58.9236   17.7044 O   0  0  0  0  0  0  0  0  0  0  0  0
   75.2692   60.5596   20.4142 O   0  0  0  0  0  0  0  0  0  0  0  0
   73.4736   61.7558   21.2348 O   0  0  0  0  0  0  0  0  0  0  0  0
   71.4476   46.8204   18.0263 O   0  0  0  0  0  0  0  0  0  0  0  0
   71.9426   47.5203   14.6241 O   0  0  0  0  0  0  0  0  0  0  0  0
   70.8693   53.8333   16.2644 S   0  0  2  0  0  6  0  0  0  0  0  0
  1  2  1  0
 16  1  1  0
  1 36  1  1
  2  8  1  6
  2 33  1  0
 33  3  1  0
  3 37  2  0
  3 38  1  0
  4  5  1  0
  4 17  1  0
  4 38  1  6
  5 39  1  0
 17  6  1  0
  6 39  1  6
  6 40  1  0
 18  7  1  0
  7 40  1  0
  8 19  1  0
 10  9  2  0
 14  9  1  0
  9 30  1  0
 11 10  1  0
 12 11  2  0
 12 13  1  0
 43 12  1  0
 13 14  2  0
 27 15  1  1
 32 15  1  0
 32 16  1  0
 17 18  1  6
 19 20  2  0
 19 24  1  0
 20 21  1  0
 21 22  2  0
 23 22  1  0
 24 23  2  0
 30 25  1  0
 25 41  1  0
 28 26  1  0
 27 28  1  0
 27 29  1  0
 29 31  1  0
 30 42  1  6
 43 32  1  6
 43 34  2  0
 43 35  2  0
M  END
$$$$
