
     RDKit          3D

 43 46  0  0  0  0  0  0  0  0999 V2000
   70.5160   56.3174   17.4768 C   0  0  1  0  0  0  0  0  0  0  0  0
   70.4867   57.7582   17.8023 C   0  0  2  0  0  0  0  0  0  0  0  0
   72.8212   58.4413   18.4822 C   0  0  0  0  0  0  0  0  0  0  0  0
   74.6026   59.9991   18.9959 C   0  0  1  0  0  0  0  0  0  0  0  0
   75.0574   61.2266   18.2681 C   0  0  0  0  0  0  0  0  0  0  0  0
   74.2987   61.9166   20.2637 C   0  0  1  0  0  0  0  0  0  0  0  0
   72.1733   62.4253   19.8117 C   0  0  0  0  0  0  0  0  0  0  0  0
   69.2176   58.4051   17.4402 C   0  0  0  0  0  0  0  0  0  0  0  0
   71.9695   50.0496   13.2317 C   0  0  0  0  0  0  0  0  0  0  0  0
   71.4462   50.0173   14.4902 C   0  0  0  0  0  0  0  0  0  0  0  0
   71.2827   51.1624   15.2794 C   0  0  0  0  0  0  0  0  0  0  0  0
   71.6518   52.4050   14.8107 C   0  0  0  0  0  0  0  0  0  0  0  0
   72.1849   52.4362   13.5289 C   0  0  0  0  0  0  0  0  0  0  0  0
   72.3445   51.3142   12.7565 C   0  0  0  0  0  0  0  0  0  0  0  0
   68.9279   53.9269   15.2993 C   0  0  0  0  0  0  0  0  0  0  0  0
   70.0154   55.9507   16.1040 C   0  0  0  0  0  0  0  0  0  0  0  0
   73.6248   60.5793   19.9923 C   0  0  1  0  0  0  0  0  0  0  0  0
   72.3329   61.0009   19.3749 C   0  0  0  0  0  0  0  0  0  0  0  0
   68.4656   59.1438   18.4406 C   0  0  0  0  0  0  0  0  0  0  0  0
   68.1319   60.4946   18.2909 C   0  0  0  0  0  0  0  0  0  0  0  0
   67.4545   61.1380   19.2748 C   0  0  0  0  0  0  0  0  0  0  0  0
   67.0816   60.4733   20.4422 C   0  0  0  0  0  0  0  0  0  0  0  0
   67.4049   59.1453   20.5993 C   0  0  0  0  0  0  0  0  0  0  0  0
   68.0919   58.4815   19.6082 C   0  0  0  0  0  0  0  0  0  0  0  0
   71.2270   48.8614   11.1763 C   0  0  0  0  0  0  0  0  0  0  0  0
   67.1980   55.4045   17.5278 C   0  0  0  0  0  0  0  0  0  0  0  0
   67.6568   54.6821   15.1611 C   0  0  2  0  0  0  0  0  0  0  0  0
   66.7110   54.7000   16.3027 C   0  0  0  0  0  0  0  0  0  0  0  0
   66.9588   54.3768   13.8371 C   0  0  0  0  0  0  0  0  0  0  0  0
   72.1550   48.8729   12.3513 C   0  0  2  0  0  0  0  0  0  0  0  0
   67.0441   52.9590   13.4084 C   0  0  0  0  0  0  0  0  0  0  0  0
   70.0055   54.5314   15.9338 N   0  0  0  0  0  0  0  0  0  0  0  0
   71.7059   58.4659   17.6213 N   0  0  0  0  0  0  0  0  0  0  0  0
   72.4780   54.8640   15.0781 O   0  0  0  0  0  0  0  0  0  0  0  0
   72.1592   53.5861   17.0983 O   0  0  0  0  0  0  0  0  0  0  0  0
   71.8665   55.8555   17.4728 O   0  0  0  0  0  0  0  0  0  0  0  0
   72.7072   57.8771   19.5937 O   0  0  0  0  0  0  0  0  0  0  0  0
   74.0584   59.0069   18.1820 O   0  0  0  0  0  0  0  0  0  0  0  0
   74.9066   62.3032   19.1014 O   0  0  0  0  0  0  0  0  0  0  0  0
   73.2424   62.7235   20.6448 O   0  0  0  0  0  0  0  0  0  0  0  0
   71.3605   47.7262   10.4196 O   0  0  0  0  0  0  0  0  0  0  0  0
   71.9002   47.7044   13.1078 O   0  0  0  0  0  0  0  0  0  0  0  0
   71.5145   53.8478   15.7463 S   0  0  2  0  0  6  0  0  0  0  0  0
  1  2  1  0
 16  1  1  0
  1 36  1  6
  2  8  1  6
  2 33  1  0
 33  3  1  0
  3 37  2  0
  3 38  1  0
  4  5  1  0
  4 17  1  0
  4 38  1  6
  5 39  1  0
 17  6  1  0
  6 39  1  6
  6 40  1  0
 18  7  1  0
  7 40  1  0
  8 19  1  0
 10  9  2  0
 14  9  1  0
  9 30  1  0
 11 10  1  0
 12 11  2  0
 12 13  1  0
 43 12  1  0
 13 14  2  0
 27 15  1  1
 32 15  1  0
 32 16  1  0
 17 18  1  6
 19 20  2  0
 19 24  1  0
 20 21  1  0
 21 22  2  0
 23 22  1  0
 24 23  2  0
 30 25  1  0
 25 41  1  0
 28 26  1  0
 27 28  1  0
 27 29  1  0
 29 31  1  0
 30 42  1  1
 43 32  1  1
 43 34  2  0
 43 35  2  0
M  END
$$$$
