
     RDKit          3D

 43 46  0  0  0  0  0  0  0  0999 V2000
   70.2193   57.2551   15.3373 C   0  0  1  0  0  0  0  0  0  0  0  0
   70.1176   57.4570   16.7974 C   0  0  2  0  0  0  0  0  0  0  0  0
   72.1736   58.7805   17.4295 C   0  0  0  0  0  0  0  0  0  0  0  0
   73.1043   60.7182   18.5447 C   0  0  1  0  0  0  0  0  0  0  0  0
   72.8152   61.7975   19.5421 C   0  0  0  0  0  0  0  0  0  0  0  0
   74.9266   61.1367   19.9159 C   0  0  1  0  0  0  0  0  0  0  0  0
   74.6641   59.5885   21.5017 C   0  0  0  0  0  0  0  0  0  0  0  0
   68.9416   58.2465   17.1895 C   0  0  0  0  0  0  0  0  0  0  0  0
   66.8799   51.9243   13.0772 C   0  0  0  0  0  0  0  0  0  0  0  0
   66.7010   53.2757   13.0602 C   0  0  0  0  0  0  0  0  0  0  0  0
   67.4422   54.1548   13.8594 C   0  0  0  0  0  0  0  0  0  0  0  0
   68.4098   53.6847   14.7212 C   0  0  0  0  0  0  0  0  0  0  0  0
   68.5905   52.3080   14.7377 C   0  0  0  0  0  0  0  0  0  0  0  0
   67.8642   51.4477   13.9545 C   0  0  0  0  0  0  0  0  0  0  0  0
   71.8858   54.2873   16.1847 C   0  0  0  0  0  0  0  0  0  0  0  0
   71.2458   56.2470   14.8903 C   0  0  0  0  0  0  0  0  0  0  0  0
   74.2349   59.9743   19.2182 C   0  0  1  0  0  0  0  0  0  0  0  0
   73.7880   59.1397   20.3721 C   0  0  0  0  0  0  0  0  0  0  0  0
   68.7708   58.6608   18.5720 C   0  0  0  0  0  0  0  0  0  0  0  0
   67.6610   59.3916   19.0108 C   0  0  0  0  0  0  0  0  0  0  0  0
   67.5735   59.7762   20.3090 C   0  0  0  0  0  0  0  0  0  0  0  0
   68.5770   59.4545   21.2218 C   0  0  0  0  0  0  0  0  0  0  0  0
   69.6723   58.7364   20.8005 C   0  0  0  0  0  0  0  0  0  0  0  0
   69.7726   58.3404   19.4860 C   0  0  0  0  0  0  0  0  0  0  0  0
   64.8434   50.5110   12.8696 C   0  0  0  0  0  0  0  0  0  0  0  0
   72.7119   51.8847   14.3413 C   0  0  0  0  0  0  0  0  0  0  0  0
   73.2215   54.0027   15.6014 C   0  0  2  0  0  0  0  0  0  0  0  0
   73.2960   53.2606   14.3201 C   0  0  0  0  0  0  0  0  0  0  0  0
   74.1888   53.4500   16.6465 C   0  0  0  0  0  0  0  0  0  0  0  0
   66.1323   50.9513   12.2475 C   0  0  2  0  0  0  0  0  0  0  0  0
   74.6433   54.4426   17.6511 C   0  0  0  0  0  0  0  0  0  0  0  0
   70.9411   54.9520   15.4134 N   0  0  0  0  0  0  0  0  0  0  0  0
   71.3443   57.6429   17.4907 N   0  0  0  0  0  0  0  0  0  0  0  0
   69.1778   54.0975   17.1789 O   0  0  0  0  0  0  0  0  0  0  0  0
   68.5953   56.0370   15.8693 O   0  0  0  0  0  0  0  0  0  0  0  0
   68.9916   56.7219   14.8417 O   0  0  0  0  0  0  0  0  0  0  0  0
   73.1225   58.7864   16.6133 O   0  0  0  0  0  0  0  0  0  0  0  0
   72.0118   59.9145   18.2224 O   0  0  0  0  0  0  0  0  0  0  0  0
   73.9532   62.0304   20.2679 O   0  0  0  0  0  0  0  0  0  0  0  0
   75.5491   60.5268   20.9895 O   0  0  0  0  0  0  0  0  0  0  0  0
   64.0706   49.7818   12.0035 O   0  0  0  0  0  0  0  0  0  0  0  0
   66.9375   49.8006   12.0741 O   0  0  0  0  0  0  0  0  0  0  0  0
   69.3288   54.7094   15.7610 S   0  0  2  0  0  6  0  0  0  0  0  0
  1  2  1  0
 16  1  1  0
  1 36  1  1
  2  8  1  6
  2 33  1  0
 33  3  1  0
  3 37  2  0
  3 38  1  0
  4  5  1  0
  4 17  1  0
  4 38  1  1
  5 39  1  0
 17  6  1  0
  6 39  1  1
  6 40  1  0
 18  7  1  0
  7 40  1  0
  8 19  1  0
 10  9  2  0
 14  9  1  0
  9 30  1  0
 11 10  1  0
 12 11  2  0
 12 13  1  0
 43 12  1  0
 13 14  2  0
 27 15  1  1
 32 15  1  0
 32 16  1  0
 17 18  1  1
 19 20  2  0
 19 24  1  0
 20 21  1  0
 21 22  2  0
 23 22  1  0
 24 23  2  0
 30 25  1  0
 25 41  1  0
 28 26  1  0
 27 28  1  0
 27 29  1  0
 29 31  1  0
 30 42  1  1
 43 32  1  6
 43 34  2  0
 43 35  2  0
M  END
$$$$
