
     RDKit          3D

 43 46  0  0  0  0  0  0  0  0999 V2000
   71.1659   56.9829   15.2671 C   0  0  1  0  0  0  0  0  0  0  0  0
   70.9070   57.6112   16.5789 C   0  0  2  0  0  0  0  0  0  0  0  0
   72.4562   58.3308   18.4393 C   0  0  0  0  0  0  0  0  0  0  0  0
   74.0332   59.3588   19.9627 C   0  0  1  0  0  0  0  0  0  0  0  0
   75.0868   60.4125   19.8111 C   0  0  0  0  0  0  0  0  0  0  0  0
   73.5985   61.2110   21.2881 C   0  0  1  0  0  0  0  0  0  0  0  0
   72.2219   62.3873   19.9836 C   0  0  0  0  0  0  0  0  0  0  0  0
   69.5205   58.0738   16.7328 C   0  0  0  0  0  0  0  0  0  0  0  0
   65.8114   51.3727   13.8285 C   0  0  0  0  0  0  0  0  0  0  0  0
   67.1182   51.0949   14.0999 C   0  0  0  0  0  0  0  0  0  0  0  0
   67.9836   52.0118   14.7093 C   0  0  0  0  0  0  0  0  0  0  0  0
   67.5455   53.2674   15.0715 C   0  0  0  0  0  0  0  0  0  0  0  0
   66.2143   53.5489   14.7940 C   0  0  0  0  0  0  0  0  0  0  0  0
   65.3673   52.6503   14.1973 C   0  0  0  0  0  0  0  0  0  0  0  0
   71.1257   54.2502   15.2216 C   0  0  0  0  0  0  0  0  0  0  0  0
   69.9807   56.3129   14.6219 C   0  0  0  0  0  0  0  0  0  0  0  0
   72.8587   60.1704   20.4599 C   0  0  1  0  0  0  0  0  0  0  0  0
   72.2280   61.0083   19.3978 C   0  0  0  0  0  0  0  0  0  0  0  0
   69.0873   58.6721   17.9843 C   0  0  0  0  0  0  0  0  0  0  0  0
   68.6636   57.9110   19.0796 C   0  0  0  0  0  0  0  0  0  0  0  0
   68.2410   58.5291   20.2111 C   0  0  0  0  0  0  0  0  0  0  0  0
   68.2207   59.9200   20.3040 C   0  0  0  0  0  0  0  0  0  0  0  0
   68.6353   60.6775   19.2329 C   0  0  0  0  0  0  0  0  0  0  0  0
   69.0662   60.0621   18.0795 C   0  0  0  0  0  0  0  0  0  0  0  0
   65.5151   49.3109   12.4687 C   0  0  0  0  0  0  0  0  0  0  0  0
   73.3161   52.8354   14.0824 C   0  0  0  0  0  0  0  0  0  0  0  0
   72.4146   54.9706   15.0632 C   0  0  2  0  0  0  0  0  0  0  0  0
   73.5953   54.2192   14.5738 C   0  0  0  0  0  0  0  0  0  0  0  0
   72.7395   55.8241   16.2877 C   0  0  0  0  0  0  0  0  0  0  0  0
   64.8512   50.4387   13.1962 C   0  0  2  0  0  0  0  0  0  0  0  0
   74.1320   55.6882   16.7811 C   0  0  0  0  0  0  0  0  0  0  0  0
   69.9399   54.9251   14.9617 N   0  0  0  0  0  0  0  0  0  0  0  0
   71.9655   58.3904   17.1197 N   0  0  0  0  0  0  0  0  0  0  0  0
   68.9575   53.8819   17.1760 O   0  0  0  0  0  0  0  0  0  0  0  0
   67.7094   55.6619   16.1321 O   0  0  0  0  0  0  0  0  0  0  0  0
   71.5367   57.9856   14.3215 O   0  0  0  0  0  0  0  0  0  0  0  0
   71.6738   57.9878   19.3540 O   0  0  0  0  0  0  0  0  0  0  0  0
   73.7668   58.6299   18.8047 O   0  0  0  0  0  0  0  0  0  0  0  0
   74.7957   61.4403   20.6684 O   0  0  0  0  0  0  0  0  0  0  0  0
   72.7359   62.2916   21.2691 O   0  0  0  0  0  0  0  0  0  0  0  0
   65.9239   48.3143   13.3166 O   0  0  0  0  0  0  0  0  0  0  0  0
   64.0812   51.1602   12.2532 O   0  0  0  0  0  0  0  0  0  0  0  0
   68.5697   54.4564   15.7878 S   0  0  2  0  0  6  0  0  0  0  0  0
  1  2  1  0
 16  1  1  0
  1 36  1  6
  2  8  1  6
  2 33  1  0
 33  3  1  0
  3 37  2  0
  3 38  1  0
  4  5  1  0
  4 17  1  0
  4 38  1  6
  5 39  1  0
 17  6  1  0
  6 39  1  6
  6 40  1  0
 18  7  1  0
  7 40  1  0
  8 19  1  0
 10  9  2  0
 14  9  1  0
  9 30  1  0
 11 10  1  0
 12 11  2  0
 12 13  1  0
 43 12  1  0
 13 14  2  0
 27 15  1  1
 32 15  1  0
 32 16  1  0
 17 18  1  6
 19 20  2  0
 19 24  1  0
 20 21  1  0
 21 22  2  0
 23 22  1  0
 24 23  2  0
 30 25  1  0
 25 41  1  0
 28 26  1  0
 27 28  1  0
 27 29  1  0
 29 31  1  0
 30 42  1  6
 43 32  1  6
 43 34  2  0
 43 35  2  0
M  END
$$$$
