
     RDKit          3D

 19 19  0  0  0  0  0  0  0  0999 V2000
   20.2945    1.2704  -16.1895 C   0  0  0  0  0  0  0  0  0  0  0  0
   19.7473    0.1746  -16.8208 C   0  0  0  0  0  0  0  0  0  0  0  0
   20.5031    2.4698  -16.8172 C   0  0  0  0  0  0  0  0  0  0  0  0
   19.5815    1.4607  -18.8091 C   0  0  0  0  0  0  0  0  0  0  0  0
   19.6362   -1.1765  -14.8584 O   0  0  0  0  0  0  0  0  0  0  0  0
   19.5434   -1.0982  -16.1011 C   0  0  0  0  0  0  0  0  0  0  0  0
   19.2295   -2.3062  -16.7898 N   0  0  0  0  0  0  0  0  0  0  0  0
   19.1009   -3.5685  -16.1601 C   0  0  0  0  0  0  0  0  0  0  0  0
   19.1006   -4.7486  -17.0837 C   0  0  0  0  0  0  0  0  0  0  0  0
   18.9220   -6.0351  -16.3654 C   0  0  0  0  0  0  0  0  0  0  0  0
   18.8944   -7.2638  -17.1919 C   0  0  0  0  0  0  0  0  0  0  0  0
   19.3875    0.2736  -18.1457 C   0  0  0  0  0  0  0  0  0  0  0  0
   18.6874   -1.1306  -18.9504 Cl  0  0  0  0  0  0  0  0  0  0  0  0
   20.1279    2.5329  -18.1544 C   0  0  0  0  0  0  0  0  0  0  0  0
   20.3659    4.0282  -19.0119 Cl  0  0  0  0  0  0  0  0  0  0  0  0
   21.1958    3.8436  -16.0083 S   0  0  1  0  0  6  0  0  0  0  0  0
   22.3216    4.4600  -16.7828 O   0  0  0  0  0  0  0  0  0  0  0  0
   20.1142    4.8991  -15.8880 O   0  0  0  0  0  0  0  0  0  0  0  0
   21.7466    3.4742  -14.4335 N   0  0  0  0  0  0  0  0  0  0  0  0
  1  2  2  0
  1  3  1  0
  2  6  1  0
  2 12  1  0
  3 14  2  0
  3 16  1  0
 12  4  2  0
  4 14  1  0
  6  5  2  0
  6  7  1  0
  7  8  1  0
  8  9  1  0
  9 10  1  0
 10 11  1  0
 12 13  1  0
 14 15  1  0
 16 17  2  0
 16 18  2  0
 16 19  1  1
M  END
$$$$
