
     RDKit          3D

 19 19  0  0  0  0  0  0  0  0999 V2000
   20.6093    1.0807  -16.5422 C   0  0  0  0  0  0  0  0  0  0  0  0
   20.1718   -0.0314  -17.2282 C   0  0  0  0  0  0  0  0  0  0  0  0
   20.7803    2.3051  -17.1316 C   0  0  0  0  0  0  0  0  0  0  0  0
   20.0482    1.2888  -19.1971 C   0  0  0  0  0  0  0  0  0  0  0  0
   20.6685   -1.6375  -15.5362 O   0  0  0  0  0  0  0  0  0  0  0  0
   20.0043   -1.3311  -16.5482 C   0  0  0  0  0  0  0  0  0  0  0  0
   19.0735   -2.3054  -17.0133 N   0  0  0  0  0  0  0  0  0  0  0  0
   18.4804   -3.2934  -16.1895 C   0  0  0  0  0  0  0  0  0  0  0  0
   17.2892   -3.9873  -16.7770 C   0  0  0  0  0  0  0  0  0  0  0  0
   16.9652   -5.2555  -16.0772 C   0  0  0  0  0  0  0  0  0  0  0  0
   15.8076   -6.0245  -16.5893 C   0  0  0  0  0  0  0  0  0  0  0  0
   19.8887    0.0767  -18.5709 C   0  0  0  0  0  0  0  0  0  0  0  0
   19.3290   -1.3484  -19.4458 Cl  0  0  0  0  0  0  0  0  0  0  0  0
   20.4849    2.3768  -18.4882 C   0  0  0  0  0  0  0  0  0  0  0  0
   20.6808    3.9037  -19.2992 Cl  0  0  0  0  0  0  0  0  0  0  0  0
   21.3343    3.6993  -16.2536 S   0  0  1  0  0  6  0  0  0  0  0  0
   22.4689    4.3983  -16.9403 O   0  0  0  0  0  0  0  0  0  0  0  0
   20.1853    4.6860  -16.1863 O   0  0  0  0  0  0  0  0  0  0  0  0
   21.8027    3.3284  -14.6527 N   0  0  0  0  0  0  0  0  0  0  0  0
  1  2  2  0
  1  3  1  0
  2  6  1  0
  2 12  1  0
  3 14  2  0
  3 16  1  0
 12  4  2  0
  4 14  1  0
  6  5  2  0
  6  7  1  0
  7  8  1  0
  8  9  1  0
  9 10  1  0
 10 11  1  0
 12 13  1  0
 14 15  1  0
 16 17  2  0
 16 18  2  0
 16 19  1  1
M  END
$$$$
