
     RDKit          3D

 19 19  0  0  0  0  0  0  0  0999 V2000
   20.1618    0.8853  -16.4725 C   0  0  0  0  0  0  0  0  0  0  0  0
   19.5819   -0.1488  -17.1746 C   0  0  0  0  0  0  0  0  0  0  0  0
   20.5338    2.0688  -17.0528 C   0  0  0  0  0  0  0  0  0  0  0  0
   19.7186    1.1719  -19.1423 C   0  0  0  0  0  0  0  0  0  0  0  0
   18.0264   -1.6313  -16.1394 O   0  0  0  0  0  0  0  0  0  0  0  0
   19.1994   -1.4072  -16.5038 C   0  0  0  0  0  0  0  0  0  0  0  0
   20.1522   -2.4334  -16.2370 N   0  0  0  0  0  0  0  0  0  0  0  0
   19.8509   -3.6389  -15.5568 C   0  0  0  0  0  0  0  0  0  0  0  0
   19.6785   -4.8428  -16.4322 C   0  0  0  0  0  0  0  0  0  0  0  0
   19.4195   -6.0807  -15.6553 C   0  0  0  0  0  0  0  0  0  0  0  0
   18.0022   -6.4660  -15.4648 C   0  0  0  0  0  0  0  0  0  0  0  0
   19.3588   -0.0012  -18.5248 C   0  0  0  0  0  0  0  0  0  0  0  0
   18.6165   -1.3265  -19.4204 Cl  0  0  0  0  0  0  0  0  0  0  0  0
   20.2934    2.1823  -18.4174 C   0  0  0  0  0  0  0  0  0  0  0  0
   20.7423    3.6608  -19.2175 Cl  0  0  0  0  0  0  0  0  0  0  0  0
   21.2657    3.3645  -16.1544 S   0  0  1  0  0  6  0  0  0  0  0  0
   22.4945    3.9050  -16.8218 O   0  0  0  0  0  0  0  0  0  0  0  0
   20.2642    4.5007  -16.0887 O   0  0  0  0  0  0  0  0  0  0  0  0
   21.6590    2.9177  -14.5527 N   0  0  0  0  0  0  0  0  0  0  0  0
  1  2  2  0
  1  3  1  0
  2  6  1  0
  2 12  1  0
  3 14  2  0
  3 16  1  0
 12  4  2  0
  4 14  1  0
  6  5  2  0
  6  7  1  0
  7  8  1  0
  8  9  1  0
  9 10  1  0
 10 11  1  0
 12 13  1  0
 14 15  1  0
 16 17  2  0
 16 18  2  0
 16 19  1  1
M  END
$$$$
