
     RDKit          3D

 19 19  0  0  0  0  0  0  0  0999 V2000
   20.7693    1.2339  -16.8435 C   0  0  0  0  0  0  0  0  0  0  0  0
   20.1546    0.2628  -17.6036 C   0  0  0  0  0  0  0  0  0  0  0  0
   20.8422    2.5478  -17.2233 C   0  0  0  0  0  0  0  0  0  0  0  0
   19.6343    1.9220  -19.2194 C   0  0  0  0  0  0  0  0  0  0  0  0
   19.3211   -1.5186  -16.2542 O   0  0  0  0  0  0  0  0  0  0  0  0
   20.1032   -1.1418  -17.1516 C   0  0  0  0  0  0  0  0  0  0  0  0
   20.9461   -2.1423  -17.7179 N   0  0  0  0  0  0  0  0  0  0  0  0
   20.4950   -3.4206  -18.1290 C   0  0  0  0  0  0  0  0  0  0  0  0
   20.2616   -3.5750  -19.6011 C   0  0  0  0  0  0  0  0  0  0  0  0
   20.5333   -4.9533  -20.0803 C   0  0  0  0  0  0  0  0  0  0  0  0
   20.3712   -5.2005  -21.5315 C   0  0  0  0  0  0  0  0  0  0  0  0
   19.5814    0.6135  -18.8048 C   0  0  0  0  0  0  0  0  0  0  0  0
   18.7955   -0.6317  -19.7750 Cl  0  0  0  0  0  0  0  0  0  0  0  0
   20.2526    2.8653  -18.4417 C   0  0  0  0  0  0  0  0  0  0  0  0
   20.3096    4.5176  -18.9841 Cl  0  0  0  0  0  0  0  0  0  0  0  0
   21.6222    3.7621  -16.2544 S   0  0  1  0  0  6  0  0  0  0  0  0
   22.7244    4.4640  -16.9893 O   0  0  0  0  0  0  0  0  0  0  0  0
   20.5840    4.8119  -15.9105 O   0  0  0  0  0  0  0  0  0  0  0  0
   22.2445    3.1393  -14.7900 N   0  0  0  0  0  0  0  0  0  0  0  0
  1  2  2  0
  1  3  1  0
  2  6  1  0
  2 12  1  0
  3 14  2  0
  3 16  1  0
 12  4  2  0
  4 14  1  0
  6  5  2  0
  6  7  1  0
  7  8  1  0
  8  9  1  0
  9 10  1  0
 10 11  1  0
 12 13  1  0
 14 15  1  0
 16 17  2  0
 16 18  2  0
 16 19  1  1
M  END
$$$$
