
     RDKit          3D

 19 19  0  0  0  0  0  0  0  0999 V2000
   20.2392    1.2577  -16.1423 C   0  0  0  0  0  0  0  0  0  0  0  0
   19.7781    0.0800  -16.6894 C   0  0  0  0  0  0  0  0  0  0  0  0
   20.3611    2.4190  -16.8583 C   0  0  0  0  0  0  0  0  0  0  0  0
   19.5272    1.1978  -18.7684 C   0  0  0  0  0  0  0  0  0  0  0  0
   19.8095   -1.1330  -14.6359 O   0  0  0  0  0  0  0  0  0  0  0  0
   19.6658   -1.1471  -15.8761 C   0  0  0  0  0  0  0  0  0  0  0  0
   19.3870   -2.4142  -16.4668 N   0  0  0  0  0  0  0  0  0  0  0  0
   19.1905   -3.6076  -15.7294 C   0  0  0  0  0  0  0  0  0  0  0  0
   17.8578   -4.2661  -15.9190 C   0  0  0  0  0  0  0  0  0  0  0  0
   17.8768   -5.2947  -16.9889 C   0  0  0  0  0  0  0  0  0  0  0  0
   18.2234   -6.6759  -16.5819 C   0  0  0  0  0  0  0  0  0  0  0  0
   19.4187    0.0525  -18.0177 C   0  0  0  0  0  0  0  0  0  0  0  0
   18.8290   -1.4561  -18.7146 Cl  0  0  0  0  0  0  0  0  0  0  0  0
   19.9891    2.3537  -18.1963 C   0  0  0  0  0  0  0  0  0  0  0  0
   20.1195    3.7942  -19.1635 Cl  0  0  0  0  0  0  0  0  0  0  0  0
   20.9456    3.8972  -16.1550 S   0  0  1  0  0  6  0  0  0  0  0  0
   22.0208    4.5404  -16.9783 O   0  0  0  0  0  0  0  0  0  0  0  0
   19.7858    4.8723  -16.1058 O   0  0  0  0  0  0  0  0  0  0  0  0
   21.5231    3.6869  -14.5606 N   0  0  0  0  0  0  0  0  0  0  0  0
  1  2  2  0
  1  3  1  0
  2  6  1  0
  2 12  1  0
  3 14  2  0
  3 16  1  0
 12  4  2  0
  4 14  1  0
  6  5  2  0
  6  7  1  0
  7  8  1  0
  8  9  1  0
  9 10  1  0
 10 11  1  0
 12 13  1  0
 14 15  1  0
 16 17  2  0
 16 18  2  0
 16 19  1  1
M  END
$$$$
