
     RDKit          3D

 19 19  0  0  0  0  0  0  0  0999 V2000
   20.3487    1.1537  -16.4002 C   0  0  0  0  0  0  0  0  0  0  0  0
   19.7085    0.1430  -17.0837 C   0  0  0  0  0  0  0  0  0  0  0  0
   20.6423    2.3683  -16.9611 C   0  0  0  0  0  0  0  0  0  0  0  0
   19.6171    1.5534  -18.9909 C   0  0  0  0  0  0  0  0  0  0  0  0
   18.2462   -1.5210  -16.1996 O   0  0  0  0  0  0  0  0  0  0  0  0
   19.4150   -1.1505  -16.4353 C   0  0  0  0  0  0  0  0  0  0  0  0
   20.4537   -2.0450  -16.0440 N   0  0  0  0  0  0  0  0  0  0  0  0
   20.4441   -3.4367  -16.3081 C   0  0  0  0  0  0  0  0  0  0  0  0
   21.2113   -3.8639  -17.5224 C   0  0  0  0  0  0  0  0  0  0  0  0
   21.1681   -5.3319  -17.7372 C   0  0  0  0  0  0  0  0  0  0  0  0
   21.8767   -5.8541  -18.9283 C   0  0  0  0  0  0  0  0  0  0  0  0
   19.3395    0.3478  -18.3939 C   0  0  0  0  0  0  0  0  0  0  0  0
   18.5203   -0.9477  -19.2657 Cl  0  0  0  0  0  0  0  0  0  0  0  0
   20.2550    2.5393  -18.2853 C   0  0  0  0  0  0  0  0  0  0  0  0
   20.5981    4.0597  -19.0590 Cl  0  0  0  0  0  0  0  0  0  0  0  0
   21.4518    3.6339  -16.0867 S   0  0  1  0  0  6  0  0  0  0  0  0
   22.6045    4.2140  -16.8498 O   0  0  0  0  0  0  0  0  0  0  0  0
   20.4546    4.7559  -15.8748 O   0  0  0  0  0  0  0  0  0  0  0  0
   22.0056    3.1264  -14.5519 N   0  0  0  0  0  0  0  0  0  0  0  0
  1  2  2  0
  1  3  1  0
  2  6  1  0
  2 12  1  0
  3 14  2  0
  3 16  1  0
 12  4  2  0
  4 14  1  0
  6  5  2  0
  6  7  1  0
  7  8  1  0
  8  9  1  0
  9 10  1  0
 10 11  1  0
 12 13  1  0
 14 15  1  0
 16 17  2  0
 16 18  2  0
 16 19  1  1
M  END
$$$$
