
     RDKit          3D

 19 19  0  0  0  0  0  0  0  0999 V2000
   20.2417    1.1969  -16.6463 C   0  0  0  0  0  0  0  0  0  0  0  0
   19.5791    0.1432  -17.2373 C   0  0  0  0  0  0  0  0  0  0  0  0
   20.5944    2.3343  -17.3230 C   0  0  0  0  0  0  0  0  0  0  0  0
   19.5856    1.3470  -19.2833 C   0  0  0  0  0  0  0  0  0  0  0  0
   18.0693   -1.5440  -16.4871 O   0  0  0  0  0  0  0  0  0  0  0  0
   19.2215   -1.0634  -16.4654 C   0  0  0  0  0  0  0  0  0  0  0  0
   20.1758   -1.7433  -15.6534 N   0  0  0  0  0  0  0  0  0  0  0  0
   19.8964   -2.9212  -14.9178 C   0  0  0  0  0  0  0  0  0  0  0  0
   20.1296   -4.2062  -15.6526 C   0  0  0  0  0  0  0  0  0  0  0  0
   19.8759   -5.4003  -14.8082 C   0  0  0  0  0  0  0  0  0  0  0  0
   20.1434   -6.7215  -15.4215 C   0  0  0  0  0  0  0  0  0  0  0  0
   19.2485    0.2217  -18.5712 C   0  0  0  0  0  0  0  0  0  0  0  0
   18.4005   -1.1284  -19.3245 Cl  0  0  0  0  0  0  0  0  0  0  0  0
   20.2444    2.3785  -18.6677 C   0  0  0  0  0  0  0  0  0  0  0  0
   20.6631    3.7955  -19.5866 Cl  0  0  0  0  0  0  0  0  0  0  0  0
   21.4314    3.6554  -16.5642 S   0  0  1  0  0  6  0  0  0  0  0  0
   22.5749    4.1625  -17.3905 O   0  0  0  0  0  0  0  0  0  0  0  0
   20.4485    4.8009  -16.4225 O   0  0  0  0  0  0  0  0  0  0  0  0
   22.0090    3.2628  -15.0047 N   0  0  0  0  0  0  0  0  0  0  0  0
  1  2  2  0
  1  3  1  0
  2  6  1  0
  2 12  1  0
  3 14  2  0
  3 16  1  0
 12  4  2  0
  4 14  1  0
  6  5  2  0
  6  7  1  0
  7  8  1  0
  8  9  1  0
  9 10  1  0
 10 11  1  0
 12 13  1  0
 14 15  1  0
 16 17  2  0
 16 18  2  0
 16 19  1  1
M  END
$$$$
