
     RDKit          3D

 19 19  0  0  0  0  0  0  0  0999 V2000
   20.4651    1.0833  -16.4460 C   0  0  0  0  0  0  0  0  0  0  0  0
   20.0256   -0.0253  -17.1363 C   0  0  0  0  0  0  0  0  0  0  0  0
   20.6424    2.3087  -17.0317 C   0  0  0  0  0  0  0  0  0  0  0  0
   19.9127    1.3005  -19.1020 C   0  0  0  0  0  0  0  0  0  0  0  0
   20.7051   -1.7792  -15.6696 O   0  0  0  0  0  0  0  0  0  0  0  0
   19.8514   -1.3262  -16.4601 C   0  0  0  0  0  0  0  0  0  0  0  0
   18.6967   -2.1339  -16.6760 N   0  0  0  0  0  0  0  0  0  0  0  0
   18.4885   -3.3984  -16.0725 C   0  0  0  0  0  0  0  0  0  0  0  0
   17.2988   -4.1595  -16.5733 C   0  0  0  0  0  0  0  0  0  0  0  0
   17.1018   -5.4452  -15.8583 C   0  0  0  0  0  0  0  0  0  0  0  0
   15.9696   -6.2903  -16.3025 C   0  0  0  0  0  0  0  0  0  0  0  0
   19.7470    0.0873  -18.4795 C   0  0  0  0  0  0  0  0  0  0  0  0
   19.1847   -1.3334  -19.3598 Cl  0  0  0  0  0  0  0  0  0  0  0  0
   20.3513    2.3850  -18.3890 C   0  0  0  0  0  0  0  0  0  0  0  0
   20.5552    3.9133  -19.1953 Cl  0  0  0  0  0  0  0  0  0  0  0  0
   21.1988    3.6985  -16.1483 S   0  0  1  0  0  6  0  0  0  0  0  0
   22.3287    4.4034  -16.8368 O   0  0  0  0  0  0  0  0  0  0  0  0
   20.0485    4.6829  -16.0692 O   0  0  0  0  0  0  0  0  0  0  0  0
   21.6761    3.3189  -14.5521 N   0  0  0  0  0  0  0  0  0  0  0  0
  1  2  2  0
  1  3  1  0
  2  6  1  0
  2 12  1  0
  3 14  2  0
  3 16  1  0
 12  4  2  0
  4 14  1  0
  6  5  2  0
  6  7  1  0
  7  8  1  0
  8  9  1  0
  9 10  1  0
 10 11  1  0
 12 13  1  0
 14 15  1  0
 16 17  2  0
 16 18  2  0
 16 19  1  1
M  END
$$$$
