
     RDKit          3D

 19 19  0  0  0  0  0  0  0  0999 V2000
   20.2504    1.1045  -16.1121 C   0  0  0  0  0  0  0  0  0  0  0  0
   19.6641    0.0568  -16.7882 C   0  0  0  0  0  0  0  0  0  0  0  0
   20.6535    2.2605  -16.7262 C   0  0  0  0  0  0  0  0  0  0  0  0
   19.8583    1.3055  -18.7977 C   0  0  0  0  0  0  0  0  0  0  0  0
   18.0673   -1.3552  -15.7180 O   0  0  0  0  0  0  0  0  0  0  0  0
   19.2475   -1.1706  -16.0813 C   0  0  0  0  0  0  0  0  0  0  0  0
   20.1739   -2.2103  -15.7762 N   0  0  0  0  0  0  0  0  0  0  0  0
   19.8083   -3.4613  -15.2213 C   0  0  0  0  0  0  0  0  0  0  0  0
   19.3320   -4.4850  -16.2066 C   0  0  0  0  0  0  0  0  0  0  0  0
   19.0376   -5.7940  -15.5719 C   0  0  0  0  0  0  0  0  0  0  0  0
   18.6092   -6.8909  -16.4701 C   0  0  0  0  0  0  0  0  0  0  0  0
   19.4670    0.1611  -18.1465 C   0  0  0  0  0  0  0  0  0  0  0  0
   18.7163   -1.1815  -19.0088 Cl  0  0  0  0  0  0  0  0  0  0  0  0
   20.4387    2.3304  -18.0980 C   0  0  0  0  0  0  0  0  0  0  0  0
   20.9279    3.7721  -18.9406 Cl  0  0  0  0  0  0  0  0  0  0  0  0
   21.3931    3.5737  -15.8603 S   0  0  1  0  0  6  0  0  0  0  0  0
   22.5197    4.2036  -16.6228 O   0  0  0  0  0  0  0  0  0  0  0  0
   20.3395    4.6462  -15.6651 O   0  0  0  0  0  0  0  0  0  0  0  0
   21.9625    3.1098  -14.3174 N   0  0  0  0  0  0  0  0  0  0  0  0
  1  2  2  0
  1  3  1  0
  2  6  1  0
  2 12  1  0
  3 14  2  0
  3 16  1  0
 12  4  2  0
  4 14  1  0
  6  5  2  0
  6  7  1  0
  7  8  1  0
  8  9  1  0
  9 10  1  0
 10 11  1  0
 12 13  1  0
 14 15  1  0
 16 17  2  0
 16 18  2  0
 16 19  1  1
M  END
$$$$
