
     RDKit          3D

 19 19  0  0  0  0  0  0  0  0999 V2000
   21.0206    1.1464  -16.7144 C   0  0  0  0  0  0  0  0  0  0  0  0
   20.5193    0.0964  -17.4527 C   0  0  0  0  0  0  0  0  0  0  0  0
   21.0872    2.4301  -17.1873 C   0  0  0  0  0  0  0  0  0  0  0  0
   20.1101    1.6070  -19.2374 C   0  0  0  0  0  0  0  0  0  0  0  0
   21.0066   -2.2383  -17.4783 O   0  0  0  0  0  0  0  0  0  0  0  0
   20.4697   -1.2713  -16.8989 C   0  0  0  0  0  0  0  0  0  0  0  0
   19.8044   -1.5587  -15.6713 N   0  0  0  0  0  0  0  0  0  0  0  0
   19.8269   -2.8233  -15.0335 C   0  0  0  0  0  0  0  0  0  0  0  0
   18.9903   -2.9315  -13.7950 C   0  0  0  0  0  0  0  0  0  0  0  0
   19.0822   -4.2698  -13.1597 C   0  0  0  0  0  0  0  0  0  0  0  0
   18.3159   -4.4694  -11.9081 C   0  0  0  0  0  0  0  0  0  0  0  0
   20.0595    0.3322  -18.7284 C   0  0  0  0  0  0  0  0  0  0  0  0
   19.4186   -1.0137  -19.6705 Cl  0  0  0  0  0  0  0  0  0  0  0  0
   20.6140    2.6307  -18.4791 C   0  0  0  0  0  0  0  0  0  0  0  0
   20.6699    4.2387  -19.1414 Cl  0  0  0  0  0  0  0  0  0  0  0  0
   21.7234    3.7448  -16.2448 S   0  0  1  0  0  6  0  0  0  0  0  0
   22.8589    4.4458  -16.9279 O   0  0  0  0  0  0  0  0  0  0  0  0
   20.6153    4.7650  -16.0732 O   0  0  0  0  0  0  0  0  0  0  0  0
   22.2329    3.2559  -14.6888 N   0  0  0  0  0  0  0  0  0  0  0  0
  1  2  2  0
  1  3  1  0
  2  6  1  0
  2 12  1  0
  3 14  2  0
  3 16  1  0
 12  4  2  0
  4 14  1  0
  6  5  2  0
  6  7  1  0
  7  8  1  0
  8  9  1  0
  9 10  1  0
 10 11  1  0
 12 13  1  0
 14 15  1  0
 16 17  2  0
 16 18  2  0
 16 19  1  1
M  END
$$$$
