
     RDKit          3D

 19 19  0  0  0  0  0  0  0  0999 V2000
   20.5562    1.0134  -16.4256 C   0  0  0  0  0  0  0  0  0  0  0  0
   19.9675    0.0110  -17.1655 C   0  0  0  0  0  0  0  0  0  0  0  0
   20.7817    2.2724  -16.9156 C   0  0  0  0  0  0  0  0  0  0  0  0
   19.7916    1.5224  -18.9874 C   0  0  0  0  0  0  0  0  0  0  0  0
   18.8080   -1.5671  -15.8038 O   0  0  0  0  0  0  0  0  0  0  0  0
   19.7468   -1.3317  -16.5927 C   0  0  0  0  0  0  0  0  0  0  0  0
   20.5965   -2.4311  -16.9116 N   0  0  0  0  0  0  0  0  0  0  0  0
   20.1282   -3.7277  -17.2374 C   0  0  0  0  0  0  0  0  0  0  0  0
   20.7834   -4.3664  -18.4241 C   0  0  0  0  0  0  0  0  0  0  0  0
   20.1778   -5.6754  -18.7743 C   0  0  0  0  0  0  0  0  0  0  0  0
   20.4995   -6.2242  -20.1118 C   0  0  0  0  0  0  0  0  0  0  0  0
   19.5818    0.2712  -18.4609 C   0  0  0  0  0  0  0  0  0  0  0  0
   18.8287   -1.0138  -19.4050 Cl  0  0  0  0  0  0  0  0  0  0  0  0
   20.3793    2.4987  -18.2270 C   0  0  0  0  0  0  0  0  0  0  0  0
   20.6368    4.0775  -18.9117 Cl  0  0  0  0  0  0  0  0  0  0  0  0
   21.5266    3.5269  -15.9707 S   0  0  1  0  0  6  0  0  0  0  0  0
   22.6679    4.1851  -16.6860 O   0  0  0  0  0  0  0  0  0  0  0  0
   20.4829    4.5989  -15.7264 O   0  0  0  0  0  0  0  0  0  0  0  0
   22.0748    2.9715  -14.4506 N   0  0  0  0  0  0  0  0  0  0  0  0
  1  2  2  0
  1  3  1  0
  2  6  1  0
  2 12  1  0
  3 14  2  0
  3 16  1  0
 12  4  2  0
  4 14  1  0
  6  5  2  0
  6  7  1  0
  7  8  1  0
  8  9  1  0
  9 10  1  0
 10 11  1  0
 12 13  1  0
 14 15  1  0
 16 17  2  0
 16 18  2  0
 16 19  1  1
M  END
$$$$
