
     RDKit          3D

 19 19  0  0  0  0  0  0  0  0999 V2000
   20.4088    1.1104  -16.6462 C   0  0  0  0  0  0  0  0  0  0  0  0
   19.7686    0.0990  -17.3288 C   0  0  0  0  0  0  0  0  0  0  0  0
   20.7971    2.2837  -17.2366 C   0  0  0  0  0  0  0  0  0  0  0  0
   19.8732    1.4233  -19.2961 C   0  0  0  0  0  0  0  0  0  0  0  0
   18.2399   -1.6549  -16.8037 O   0  0  0  0  0  0  0  0  0  0  0  0
   19.3708   -1.1491  -16.6479 C   0  0  0  0  0  0  0  0  0  0  0  0
   20.2596   -1.8423  -15.7751 N   0  0  0  0  0  0  0  0  0  0  0  0
   19.8694   -2.9089  -14.9285 C   0  0  0  0  0  0  0  0  0  0  0  0
   19.9778   -4.2771  -15.5299 C   0  0  0  0  0  0  0  0  0  0  0  0
   19.5891   -5.3499  -14.5806 C   0  0  0  0  0  0  0  0  0  0  0  0
   20.5169   -5.6169  -13.4575 C   0  0  0  0  0  0  0  0  0  0  0  0
   19.4989    0.2599  -18.6690 C   0  0  0  0  0  0  0  0  0  0  0  0
   18.6794   -1.0362  -19.5396 Cl  0  0  0  0  0  0  0  0  0  0  0  0
   20.5084    2.4111  -18.5906 C   0  0  0  0  0  0  0  0  0  0  0  0
   20.9749    3.8776  -19.4026 Cl  0  0  0  0  0  0  0  0  0  0  0  0
   21.6053    3.5505  -16.3629 S   0  0  1  0  0  6  0  0  0  0  0  0
   22.8197    4.0595  -17.0795 O   0  0  0  0  0  0  0  0  0  0  0  0
   20.6418    4.7153  -16.2471 O   0  0  0  0  0  0  0  0  0  0  0  0
   22.0537    3.0806  -14.7824 N   0  0  0  0  0  0  0  0  0  0  0  0
  1  2  2  0
  1  3  1  0
  2  6  1  0
  2 12  1  0
  3 14  2  0
  3 16  1  0
 12  4  2  0
  4 14  1  0
  6  5  2  0
  6  7  1  0
  7  8  1  0
  8  9  1  0
  9 10  1  0
 10 11  1  0
 12 13  1  0
 14 15  1  0
 16 17  2  0
 16 18  2  0
 16 19  1  1
M  END
$$$$
