
     RDKit          3D

 19 19  0  0  0  0  0  0  0  0999 V2000
   20.3211    1.1391  -16.6470 C   0  0  0  0  0  0  0  0  0  0  0  0
   19.7437    0.1164  -17.3677 C   0  0  0  0  0  0  0  0  0  0  0  0
   20.6159    2.3627  -17.1873 C   0  0  0  0  0  0  0  0  0  0  0  0
   19.7237    1.5323  -19.2729 C   0  0  0  0  0  0  0  0  0  0  0  0
   18.6747   -2.0135  -17.2695 O   0  0  0  0  0  0  0  0  0  0  0  0
   19.4461   -1.1865  -16.7403 C   0  0  0  0  0  0  0  0  0  0  0  0
   20.0254   -1.5679  -15.4949 N   0  0  0  0  0  0  0  0  0  0  0  0
   19.3084   -2.1898  -14.4433 C   0  0  0  0  0  0  0  0  0  0  0  0
   19.1015   -1.3463  -13.2221 C   0  0  0  0  0  0  0  0  0  0  0  0
   18.4033   -2.0775  -12.1354 C   0  0  0  0  0  0  0  0  0  0  0  0
   19.2537   -2.8087  -11.1682 C   0  0  0  0  0  0  0  0  0  0  0  0
   19.4427    0.3179  -18.6956 C   0  0  0  0  0  0  0  0  0  0  0  0
   18.7039   -0.9929  -19.6151 Cl  0  0  0  0  0  0  0  0  0  0  0  0
   20.2981    2.5301  -18.5304 C   0  0  0  0  0  0  0  0  0  0  0  0
   20.6467    4.0614  -19.2795 Cl  0  0  0  0  0  0  0  0  0  0  0  0
   21.3456    3.6434  -16.2659 S   0  0  1  0  0  6  0  0  0  0  0  0
   22.5666    4.2059  -16.9294 O   0  0  0  0  0  0  0  0  0  0  0  0
   20.3374    4.7715  -16.1695 O   0  0  0  0  0  0  0  0  0  0  0  0
   21.7520    3.1649  -14.6767 N   0  0  0  0  0  0  0  0  0  0  0  0
  1  2  2  0
  1  3  1  0
  2  6  1  0
  2 12  1  0
  3 14  2  0
  3 16  1  0
 12  4  2  0
  4 14  1  0
  6  5  2  0
  6  7  1  0
  7  8  1  0
  8  9  1  0
  9 10  1  0
 10 11  1  0
 12 13  1  0
 14 15  1  0
 16 17  2  0
 16 18  2  0
 16 19  1  1
M  END
$$$$
