
     RDKit          3D

 21 21  0  0  0  0  0  0  0  0999 V2000
   -5.2904    0.3959  -13.2874 C   0  0  2  0  0  0  0  0  0  0  0  0
   -5.8831   -0.7845  -13.9660 C   0  0  0  0  0  0  0  0  0  0  0  0
   -6.7145   -1.6696  -13.1174 C   0  0  0  0  0  0  0  0  0  0  0  0
   -5.9039   -2.1341  -11.9345 C   0  0  0  0  0  0  0  0  0  0  0  0
   -5.5115   -0.9066  -11.1456 C   0  0  1  0  0  0  0  0  0  0  0  0
   -4.7063    0.0633  -11.9439 C   0  0  0  0  0  0  0  0  0  0  0  0
   -4.3907    1.2160  -11.1122 C   0  0  0  0  0  0  0  0  0  0  0  0
   -3.2706    1.3686  -10.3881 C   0  0  0  0  0  0  0  0  0  0  0  0
   -2.8903    2.6676   -9.8974 C   0  0  0  0  0  0  0  0  0  0  0  0
   -1.6540    3.0487   -9.6845 C   0  0  0  0  0  0  0  0  0  0  0  0
   -0.9966    3.1968   -8.4122 C   0  0  0  0  0  0  0  0  0  0  0  0
   -0.0684    4.0089   -8.0189 C   0  0  0  0  0  0  0  0  0  0  0  0
    1.3569    3.8312   -7.8278 C   0  0  0  0  0  0  0  0  0  0  0  0
    2.0007    4.8460   -7.2575 C   0  0  0  0  0  0  0  0  0  0  0  0
    3.4135    5.1478   -7.2138 C   0  0  0  0  0  0  0  0  0  0  0  0
    3.5422    6.5422   -6.9996 O   0  0  0  0  0  0  0  0  0  0  0  0
   -6.3348    1.4907  -13.2385 C   0  0  0  0  0  0  0  0  0  0  0  0
   -4.1158    0.8670  -14.1591 C   0  0  0  0  0  0  0  0  0  0  0  0
   -6.7141   -0.3217  -10.4697 C   0  0  0  0  0  0  0  0  0  0  0  0
   -3.9932    3.6415   -9.6147 C   0  0  0  0  0  0  0  0  0  0  0  0
    2.0966    2.6258   -8.2135 C   0  0  0  0  0  0  0  0  0  0  0  0
  1  2  1  0
  1  6  1  0
  1 17  1  1
  1 18  1  0
  2  3  1  0
  3  4  1  0
  4  5  1  0
  5  6  1  0
  5 19  1  6
  6  7  1  0
  7  8  2  0
  8  9  1  0
  9 10  2  0
  9 20  1  0
 10 11  1  0
 11 12  2  0
 12 13  1  0
 13 14  2  0
 13 21  1  0
 14 15  1  0
 15 16  1  0
M  END
$$$$
