
     RDKit          3D

 21 21  0  0  0  0  0  0  0  0999 V2000
    4.2422    2.8366  -12.9709 C   0  0  2  0  0  0  0  0  0  0  0  0
    5.5530    3.5330  -12.9250 C   0  0  0  0  0  0  0  0  0  0  0  0
    6.1038    3.7879  -11.5735 C   0  0  0  0  0  0  0  0  0  0  0  0
    5.1003    4.5680  -10.7633 C   0  0  0  0  0  0  0  0  0  0  0  0
    3.8561    3.7186  -10.6460 C   0  0  1  0  0  0  0  0  0  0  0  0
    3.2602    3.3763  -11.9704 C   0  0  0  0  0  0  0  0  0  0  0  0
    2.0825    2.5462  -11.7606 C   0  0  0  0  0  0  0  0  0  0  0  0
    1.0504    2.8500  -10.9577 C   0  0  0  0  0  0  0  0  0  0  0  0
   -0.1378    2.0370  -10.9575 C   0  0  0  0  0  0  0  0  0  0  0  0
   -1.1888    2.2576  -10.2053 C   0  0  0  0  0  0  0  0  0  0  0  0
   -2.5217    2.5774  -10.6459 C   0  0  0  0  0  0  0  0  0  0  0  0
   -3.6798    2.1851  -10.2207 C   0  0  0  0  0  0  0  0  0  0  0  0
   -4.4056    2.4586   -8.9968 C   0  0  0  0  0  0  0  0  0  0  0  0
   -5.3741    1.6005   -8.6881 C   0  0  0  0  0  0  0  0  0  0  0  0
   -6.4359    1.7038   -7.7129 C   0  0  0  0  0  0  0  0  0  0  0  0
   -7.2846    0.5836   -7.8907 O   0  0  0  0  0  0  0  0  0  0  0  0
    4.4888    1.3492  -12.8348 C   0  0  0  0  0  0  0  0  0  0  0  0
    3.6381    3.1163  -14.3560 C   0  0  0  0  0  0  0  0  0  0  0  0
    4.1145    2.5465   -9.7491 C   0  0  0  0  0  0  0  0  0  0  0  0
   -0.1618    0.8611  -11.8856 C   0  0  0  0  0  0  0  0  0  0  0  0
   -4.1291    3.5926   -8.1099 C   0  0  0  0  0  0  0  0  0  0  0  0
  1  2  1  0
  1  6  1  0
  1 17  1  1
  1 18  1  0
  2  3  1  0
  3  4  1  0
  4  5  1  0
  5  6  1  0
  5 19  1  6
  6  7  1  0
  7  8  2  0
  8  9  1  0
  9 10  2  0
  9 20  1  0
 10 11  1  0
 11 12  2  0
 12 13  1  0
 13 14  2  0
 13 21  1  0
 14 15  1  0
 15 16  1  0
M  END
$$$$
