
     RDKit          3D

 21 21  0  0  0  0  0  0  0  0999 V2000
    4.5363    2.4840  -12.2148 C   0  0  2  0  0  0  0  0  0  0  0  0
    5.6272    2.1874  -13.1777 C   0  0  0  0  0  0  0  0  0  0  0  0
    5.5214    2.8481  -14.4995 C   0  0  0  0  0  0  0  0  0  0  0  0
    4.1971    2.4985  -15.1289 C   0  0  0  0  0  0  0  0  0  0  0  0
    3.1115    3.0225  -14.2179 C   0  0  1  0  0  0  0  0  0  0  0  0
    3.1737    2.4394  -12.8459 C   0  0  0  0  0  0  0  0  0  0  0  0
    2.1066    3.0125  -12.0377 C   0  0  0  0  0  0  0  0  0  0  0  0
    1.0309    2.3480  -11.5867 C   0  0  0  0  0  0  0  0  0  0  0  0
    0.0498    3.0156  -10.7715 C   0  0  0  0  0  0  0  0  0  0  0  0
   -1.2345    2.7525  -10.7897 C   0  0  0  0  0  0  0  0  0  0  0  0
   -2.0749    2.4441   -9.6620 C   0  0  0  0  0  0  0  0  0  0  0  0
   -3.1753    1.7678   -9.5756 C   0  0  0  0  0  0  0  0  0  0  0  0
   -4.0277    1.4448   -8.4491 C   0  0  0  0  0  0  0  0  0  0  0  0
   -5.3163    1.2636   -8.7250 C   0  0  0  0  0  0  0  0  0  0  0  0
   -6.4799    1.4031   -7.8789 C   0  0  0  0  0  0  0  0  0  0  0  0
   -7.6093    1.0270   -8.6468 O   0  0  0  0  0  0  0  0  0  0  0  0
    4.8458    3.8015  -11.5363 C   0  0  0  0  0  0  0  0  0  0  0  0
    4.5560    1.3650  -11.1616 C   0  0  0  0  0  0  0  0  0  0  0  0
    3.0765    4.5198  -14.2655 C   0  0  0  0  0  0  0  0  0  0  0  0
    0.5440    4.0825   -9.8429 C   0  0  0  0  0  0  0  0  0  0  0  0
   -3.5532    1.3066   -7.0690 C   0  0  0  0  0  0  0  0  0  0  0  0
  1  2  1  0
  1  6  1  0
  1 17  1  1
  1 18  1  0
  2  3  1  0
  3  4  1  0
  4  5  1  0
  5  6  1  0
  5 19  1  1
  6  7  1  0
  7  8  2  0
  8  9  1  0
  9 10  2  0
  9 20  1  0
 10 11  1  0
 11 12  2  0
 12 13  1  0
 13 14  2  0
 13 21  1  0
 14 15  1  0
 15 16  1  0
M  END
$$$$
