
     RDKit          3D

 21 21  0  0  0  0  0  0  0  0999 V2000
    5.2161    3.0415  -11.9815 C   0  0  2  0  0  0  0  0  0  0  0  0
    6.1975    2.6052  -13.0070 C   0  0  0  0  0  0  0  0  0  0  0  0
    5.6300    2.1886  -14.3105 C   0  0  0  0  0  0  0  0  0  0  0  0
    4.6235    1.0885  -14.0892 C   0  0  0  0  0  0  0  0  0  0  0  0
    3.5232    1.6512  -13.2198 C   0  0  1  0  0  0  0  0  0  0  0  0
    4.0186    2.1381  -11.8993 C   0  0  0  0  0  0  0  0  0  0  0  0
    2.8980    2.6758  -11.1408 C   0  0  0  0  0  0  0  0  0  0  0  0
    2.0710    1.9596  -10.3628 C   0  0  0  0  0  0  0  0  0  0  0  0
    0.8405    2.5333   -9.8839 C   0  0  0  0  0  0  0  0  0  0  0  0
   -0.2939    1.8830   -9.7863 C   0  0  0  0  0  0  0  0  0  0  0  0
   -1.3928    2.1791   -8.9044 C   0  0  0  0  0  0  0  0  0  0  0  0
   -2.6712    2.0434   -9.0562 C   0  0  0  0  0  0  0  0  0  0  0  0
   -3.6319    1.1567   -8.4312 C   0  0  0  0  0  0  0  0  0  0  0  0
   -4.9027    1.3305   -8.7842 C   0  0  0  0  0  0  0  0  0  0  0  0
   -6.1202    0.9929   -8.0822 C   0  0  0  0  0  0  0  0  0  0  0  0
   -7.1854    1.6578   -8.7381 O   0  0  0  0  0  0  0  0  0  0  0  0
    4.8640    4.4899  -12.2457 C   0  0  0  0  0  0  0  0  0  0  0  0
    5.9212    2.9411  -10.6197 C   0  0  0  0  0  0  0  0  0  0  0  0
    2.7113    2.6446  -13.9938 C   0  0  0  0  0  0  0  0  0  0  0  0
    0.8722    3.9734   -9.4718 C   0  0  0  0  0  0  0  0  0  0  0  0
   -3.2819    0.1095   -7.4669 C   0  0  0  0  0  0  0  0  0  0  0  0
  1  2  1  0
  1  6  1  0
  1 17  1  6
  1 18  1  0
  2  3  1  0
  3  4  1  0
  4  5  1  0
  5  6  1  0
  5 19  1  6
  6  7  1  0
  7  8  2  0
  8  9  1  0
  9 10  2  0
  9 20  1  0
 10 11  1  0
 11 12  2  0
 12 13  1  0
 13 14  2  0
 13 21  1  0
 14 15  1  0
 15 16  1  0
M  END
$$$$
