
     RDKit          3D

 21 21  0  0  0  0  0  0  0  0999 V2000
    4.0023    2.6864  -12.0936 C   0  0  2  0  0  0  0  0  0  0  0  0
    4.8505    3.4870  -13.0128 C   0  0  0  0  0  0  0  0  0  0  0  0
    4.2469    4.7391  -13.5253 C   0  0  0  0  0  0  0  0  0  0  0  0
    2.9406    4.4221  -14.2073 C   0  0  0  0  0  0  0  0  0  0  0  0
    2.0261    3.8120  -13.1707 C   0  0  1  0  0  0  0  0  0  0  0  0
    2.5821    2.5654  -12.5681 C   0  0  0  0  0  0  0  0  0  0  0  0
    1.6461    2.0608  -11.5733 C   0  0  0  0  0  0  0  0  0  0  0  0
    0.3142    1.9896  -11.7250 C   0  0  0  0  0  0  0  0  0  0  0  0
   -0.5315    1.6677  -10.6052 C   0  0  0  0  0  0  0  0  0  0  0  0
   -1.8381    1.5760  -10.6632 C   0  0  0  0  0  0  0  0  0  0  0  0
   -2.6725    0.6110   -9.9957 C   0  0  0  0  0  0  0  0  0  0  0  0
   -3.7504    0.7535   -9.2931 C   0  0  0  0  0  0  0  0  0  0  0  0
   -5.0779    0.1890   -9.4309 C   0  0  0  0  0  0  0  0  0  0  0  0
   -6.0898    0.9925   -9.1145 C   0  0  0  0  0  0  0  0  0  0  0  0
   -7.4830    0.6890   -8.8780 C   0  0  0  0  0  0  0  0  0  0  0  0
   -8.1455    1.9143   -8.6201 O   0  0  0  0  0  0  0  0  0  0  0  0
    4.1276    3.2691  -10.7020 C   0  0  0  0  0  0  0  0  0  0  0  0
    4.5742    1.2600  -12.0894 C   0  0  0  0  0  0  0  0  0  0  0  0
    1.5993    4.8541  -12.1822 C   0  0  0  0  0  0  0  0  0  0  0  0
    0.1408    1.4229   -9.2888 C   0  0  0  0  0  0  0  0  0  0  0  0
   -5.3499   -1.1755   -9.8923 C   0  0  0  0  0  0  0  0  0  0  0  0
  1  2  1  0
  1  6  1  0
  1 17  1  1
  1 18  1  0
  2  3  1  0
  3  4  1  0
  4  5  1  0
  5  6  1  0
  5 19  1  1
  6  7  1  0
  7  8  2  0
  8  9  1  0
  9 10  2  0
  9 20  1  0
 10 11  1  0
 11 12  2  0
 12 13  1  0
 13 14  2  0
 13 21  1  0
 14 15  1  0
 15 16  1  0
M  END
$$$$
