
     RDKit          3D

 21 21  0  0  0  0  0  0  0  0999 V2000
    3.2453    3.3134  -11.3728 C   0  0  2  0  0  0  0  0  0  0  0  0
    4.4790    3.4079  -10.5517 C   0  0  0  0  0  0  0  0  0  0  0  0
    4.6594    2.3504   -9.5300 C   0  0  0  0  0  0  0  0  0  0  0  0
    3.4591    2.3254   -8.6186 C   0  0  0  0  0  0  0  0  0  0  0  0
    2.2529    2.0010   -9.4689 C   0  0  1  0  0  0  0  0  0  0  0  0
    2.0247    2.9968  -10.5563 C   0  0  0  0  0  0  0  0  0  0  0  0
    0.8586    2.5954  -11.3304 C   0  0  0  0  0  0  0  0  0  0  0  0
   -0.3340    3.2116  -11.3153 C   0  0  0  0  0  0  0  0  0  0  0  0
   -1.5106    2.5358  -11.7966 C   0  0  0  0  0  0  0  0  0  0  0  0
   -2.7224    2.7362  -11.3379 C   0  0  0  0  0  0  0  0  0  0  0  0
   -3.7430    1.7452  -11.1157 C   0  0  0  0  0  0  0  0  0  0  0  0
   -4.8049    1.7628  -10.3756 C   0  0  0  0  0  0  0  0  0  0  0  0
   -6.2087    1.9186  -10.6996 C   0  0  0  0  0  0  0  0  0  0  0  0
   -7.0709    1.4883   -9.7826 C   0  0  0  0  0  0  0  0  0  0  0  0
   -8.5162    1.4997   -9.7831 C   0  0  0  0  0  0  0  0  0  0  0  0
   -8.9464    0.7011   -8.6950 O   0  0  0  0  0  0  0  0  0  0  0  0
    3.4948    2.3281  -12.4947 C   0  0  0  0  0  0  0  0  0  0  0  0
    3.0054    4.7058  -11.9773 C   0  0  0  0  0  0  0  0  0  0  0  0
    2.3104    0.5741   -9.9226 C   0  0  0  0  0  0  0  0  0  0  0  0
   -1.3232    1.5372  -12.8977 C   0  0  0  0  0  0  0  0  0  0  0  0
   -6.7068    2.5130  -11.9436 C   0  0  0  0  0  0  0  0  0  0  0  0
  1  2  1  0
  1  6  1  0
  1 17  1  6
  1 18  1  0
  2  3  1  0
  3  4  1  0
  4  5  1  0
  5  6  1  0
  5 19  1  6
  6  7  1  0
  7  8  2  0
  8  9  1  0
  9 10  2  0
  9 20  1  0
 10 11  1  0
 11 12  2  0
 12 13  1  0
 13 14  2  0
 13 21  1  0
 14 15  1  0
 15 16  1  0
M  END
$$$$
