
     RDKit          3D

 21 21  0  0  0  0  0  0  0  0999 V2000
    3.6183    3.0037  -13.2741 C   0  0  2  0  0  0  0  0  0  0  0  0
    4.5796    4.0244  -13.7631 C   0  0  0  0  0  0  0  0  0  0  0  0
    5.2419    4.8422  -12.7203 C   0  0  0  0  0  0  0  0  0  0  0  0
    4.1936    5.5159  -11.8722 C   0  0  0  0  0  0  0  0  0  0  0  0
    3.3777    4.4280  -11.2135 C   0  0  1  0  0  0  0  0  0  0  0  0
    2.7102    3.5267  -12.1977 C   0  0  0  0  0  0  0  0  0  0  0  0
    1.9654    2.5046  -11.4761 C   0  0  0  0  0  0  0  0  0  0  0  0
    1.3241    2.6873  -10.3109 C   0  0  0  0  0  0  0  0  0  0  0  0
    0.2680    1.7941   -9.9115 C   0  0  0  0  0  0  0  0  0  0  0  0
   -0.9041    2.1804   -9.4688 C   0  0  0  0  0  0  0  0  0  0  0  0
   -2.1956    1.7478   -9.9355 C   0  0  0  0  0  0  0  0  0  0  0  0
   -3.3916    2.1172   -9.6055 C   0  0  0  0  0  0  0  0  0  0  0  0
   -4.6076    1.3647   -9.3713 C   0  0  0  0  0  0  0  0  0  0  0  0
   -5.6122    2.0366   -8.8154 C   0  0  0  0  0  0  0  0  0  0  0  0
   -6.9816    1.6398   -8.5785 C   0  0  0  0  0  0  0  0  0  0  0  0
   -7.5132    2.5158   -7.6003 O   0  0  0  0  0  0  0  0  0  0  0  0
    4.3988    1.7738  -12.8620 C   0  0  0  0  0  0  0  0  0  0  0  0
    2.7106    2.6428  -14.4605 C   0  0  0  0  0  0  0  0  0  0  0  0
    4.1967    3.7280  -10.1722 C   0  0  0  0  0  0  0  0  0  0  0  0
    0.5403    0.3243  -10.0139 C   0  0  0  0  0  0  0  0  0  0  0  0
   -4.7801   -0.0507   -9.7118 C   0  0  0  0  0  0  0  0  0  0  0  0
  1  2  1  0
  1  6  1  0
  1 17  1  1
  1 18  1  0
  2  3  1  0
  3  4  1  0
  4  5  1  0
  5  6  1  0
  5 19  1  1
  6  7  1  0
  7  8  2  0
  8  9  1  0
  9 10  2  0
  9 20  1  0
 10 11  1  0
 11 12  2  0
 12 13  1  0
 13 14  2  0
 13 21  1  0
 14 15  1  0
 15 16  1  0
M  END
$$$$
