
     RDKit          3D

 21 21  0  0  0  0  0  0  0  0999 V2000
    5.1540    2.2468  -13.3708 C   0  0  2  0  0  0  0  0  0  0  0  0
    6.5920    2.5847  -13.5235 C   0  0  0  0  0  0  0  0  0  0  0  0
    7.3271    2.8691  -12.2690 C   0  0  0  0  0  0  0  0  0  0  0  0
    6.6338    3.9811  -11.5241 C   0  0  0  0  0  0  0  0  0  0  0  0
    5.2401    3.5017  -11.1913 C   0  0  1  0  0  0  0  0  0  0  0  0
    4.4431    3.1487  -12.4023 C   0  0  0  0  0  0  0  0  0  0  0  0
    3.1279    2.6831  -11.9859 C   0  0  0  0  0  0  0  0  0  0  0  0
    2.2197    3.4137  -11.3198 C   0  0  0  0  0  0  0  0  0  0  0  0
    0.9201    2.8693  -11.0242 C   0  0  0  0  0  0  0  0  0  0  0  0
    0.3543    2.8972   -9.8418 C   0  0  0  0  0  0  0  0  0  0  0  0
   -1.0325    3.1482   -9.5470 C   0  0  0  0  0  0  0  0  0  0  0  0
   -2.0498    2.3506   -9.4785 C   0  0  0  0  0  0  0  0  0  0  0  0
   -3.3945    2.5375   -8.9721 C   0  0  0  0  0  0  0  0  0  0  0  0
   -4.1907    1.4730   -9.0226 C   0  0  0  0  0  0  0  0  0  0  0  0
   -5.5311    1.2860   -8.5153 C   0  0  0  0  0  0  0  0  0  0  0  0
   -5.8955   -0.0595   -8.7676 O   0  0  0  0  0  0  0  0  0  0  0  0
    5.0450    0.7779  -13.0211 C   0  0  0  0  0  0  0  0  0  0  0  0
    4.4938    2.4833  -14.7382 C   0  0  0  0  0  0  0  0  0  0  0  0
    5.2989    2.4336  -10.1420 C   0  0  0  0  0  0  0  0  0  0  0  0
    0.1734    2.2298  -12.1548 C   0  0  0  0  0  0  0  0  0  0  0  0
   -3.9001    3.7980   -8.4201 C   0  0  0  0  0  0  0  0  0  0  0  0
  1  2  1  0
  1  6  1  0
  1 17  1  1
  1 18  1  0
  2  3  1  0
  3  4  1  0
  4  5  1  0
  5  6  1  0
  5 19  1  1
  6  7  1  0
  7  8  2  0
  8  9  1  0
  9 10  2  0
  9 20  1  0
 10 11  1  0
 11 12  2  0
 12 13  1  0
 13 14  2  0
 13 21  1  0
 14 15  1  0
 15 16  1  0
M  END
$$$$
