
     RDKit          3D

 21 21  0  0  0  0  0  0  0  0999 V2000
    6.2549    2.7514  -10.6994 C   0  0  2  0  0  0  0  0  0  0  0  0
    7.5531    2.2746  -11.2402 C   0  0  0  0  0  0  0  0  0  0  0  0
    7.5777    1.9688  -12.6896 C   0  0  0  0  0  0  0  0  0  0  0  0
    6.5078    0.9549  -13.0051 C   0  0  0  0  0  0  0  0  0  0  0  0
    5.1776    1.5751  -12.6457 C   0  0  1  0  0  0  0  0  0  0  0  0
    5.0852    1.9565  -11.2062 C   0  0  0  0  0  0  0  0  0  0  0  0
    3.7831    2.5587  -10.9573 C   0  0  0  0  0  0  0  0  0  0  0  0
    2.6049    1.9190  -11.0274 C   0  0  0  0  0  0  0  0  0  0  0  0
    1.3699    2.6497  -10.9098 C   0  0  0  0  0  0  0  0  0  0  0  0
    0.4796    2.4569   -9.9669 C   0  0  0  0  0  0  0  0  0  0  0  0
   -0.9277    2.7558  -10.0255 C   0  0  0  0  0  0  0  0  0  0  0  0
   -1.9686    2.0096   -9.8371 C   0  0  0  0  0  0  0  0  0  0  0  0
   -3.3601    2.3321   -9.5935 C   0  0  0  0  0  0  0  0  0  0  0  0
   -4.1923    1.2981   -9.5043 C   0  0  0  0  0  0  0  0  0  0  0  0
   -5.4851    1.1937   -8.8665 C   0  0  0  0  0  0  0  0  0  0  0  0
   -5.9171   -0.1486   -9.0024 O   0  0  0  0  0  0  0  0  0  0  0  0
    6.1417    4.2359  -10.9737 C   0  0  0  0  0  0  0  0  0  0  0  0
    6.2970    2.5278   -9.1796 C   0  0  0  0  0  0  0  0  0  0  0  0
    4.8418    2.6708  -13.6110 C   0  0  0  0  0  0  0  0  0  0  0  0
    1.0958    3.6999  -11.9427 C   0  0  0  0  0  0  0  0  0  0  0  0
   -3.8758    3.6957   -9.4396 C   0  0  0  0  0  0  0  0  0  0  0  0
  1  2  1  0
  1  6  1  0
  1 17  1  1
  1 18  1  0
  2  3  1  0
  3  4  1  0
  4  5  1  0
  5  6  1  0
  5 19  1  6
  6  7  1  0
  7  8  2  0
  8  9  1  0
  9 10  2  0
  9 20  1  0
 10 11  1  0
 11 12  2  0
 12 13  1  0
 13 14  2  0
 13 21  1  0
 14 15  1  0
 15 16  1  0
M  END
$$$$
