
     RDKit          3D

 21 21  0  0  0  0  0  0  0  0999 V2000
    5.6197    2.6035  -11.8455 C   0  0  2  0  0  0  0  0  0  0  0  0
    6.9131    2.2220  -12.4674 C   0  0  0  0  0  0  0  0  0  0  0  0
    6.9861    2.3520  -13.9414 C   0  0  0  0  0  0  0  0  0  0  0  0
    5.8780    1.5464  -14.5701 C   0  0  0  0  0  0  0  0  0  0  0  0
    4.5687    2.1198  -14.0801 C   0  0  1  0  0  0  0  0  0  0  0  0
    4.4325    2.0693  -12.5951 C   0  0  0  0  0  0  0  0  0  0  0  0
    3.1552    2.6559  -12.2153 C   0  0  0  0  0  0  0  0  0  0  0  0
    1.9743    2.0172  -12.2209 C   0  0  0  0  0  0  0  0  0  0  0  0
    0.9029    2.4572  -11.3657 C   0  0  0  0  0  0  0  0  0  0  0  0
    0.0898    1.6556  -10.7213 C   0  0  0  0  0  0  0  0  0  0  0  0
   -1.0749    2.0265   -9.9603 C   0  0  0  0  0  0  0  0  0  0  0  0
   -2.3374    1.9400  -10.2330 C   0  0  0  0  0  0  0  0  0  0  0  0
   -3.3809    1.0729   -9.7242 C   0  0  0  0  0  0  0  0  0  0  0  0
   -4.2729    1.6431   -8.9188 C   0  0  0  0  0  0  0  0  0  0  0  0
   -5.3722    1.0604   -8.1832 C   0  0  0  0  0  0  0  0  0  0  0  0
   -6.1365    2.1266   -7.6487 O   0  0  0  0  0  0  0  0  0  0  0  0
    5.5998    4.1075  -11.6736 C   0  0  0  0  0  0  0  0  0  0  0  0
    5.5813    1.9435  -10.4582 C   0  0  0  0  0  0  0  0  0  0  0  0
    4.3365    3.4691  -14.6889 C   0  0  0  0  0  0  0  0  0  0  0  0
    0.7153    3.9355  -11.2102 C   0  0  0  0  0  0  0  0  0  0  0  0
   -3.5002   -0.3518  -10.0484 C   0  0  0  0  0  0  0  0  0  0  0  0
  1  2  1  0
  1  6  1  0
  1 17  1  1
  1 18  1  0
  2  3  1  0
  3  4  1  0
  4  5  1  0
  5  6  1  0
  5 19  1  1
  6  7  1  0
  7  8  2  0
  8  9  1  0
  9 10  2  0
  9 20  1  0
 10 11  1  0
 11 12  2  0
 12 13  1  0
 13 14  2  0
 13 21  1  0
 14 15  1  0
 15 16  1  0
M  END
$$$$
