
     RDKit          3D

 21 21  0  0  0  0  0  0  0  0999 V2000
    6.0698    2.1133  -13.6743 C   0  0  2  0  0  0  0  0  0  0  0  0
    7.4748    2.4472  -14.0201 C   0  0  0  0  0  0  0  0  0  0  0  0
    8.3890    2.6663  -12.8750 C   0  0  0  0  0  0  0  0  0  0  0  0
    7.8277    3.7470  -11.9867 C   0  0  0  0  0  0  0  0  0  0  0  0
    6.4907    3.2629  -11.4757 C   0  0  1  0  0  0  0  0  0  0  0  0
    5.5207    2.9736  -12.5719 C   0  0  0  0  0  0  0  0  0  0  0  0
    4.2737    2.4987  -11.9893 C   0  0  0  0  0  0  0  0  0  0  0  0
    3.3060    3.2788  -11.4822 C   0  0  0  0  0  0  0  0  0  0  0  0
    2.0569    2.7059  -11.0530 C   0  0  0  0  0  0  0  0  0  0  0  0
    1.0520    3.3939  -10.5673 C   0  0  0  0  0  0  0  0  0  0  0  0
   -0.1752    2.8739  -10.0226 C   0  0  0  0  0  0  0  0  0  0  0  0
   -0.6794    2.9437   -8.8323 C   0  0  0  0  0  0  0  0  0  0  0  0
   -1.9407    3.4635   -8.3438 C   0  0  0  0  0  0  0  0  0  0  0  0
   -2.7139    2.6009   -7.6899 C   0  0  0  0  0  0  0  0  0  0  0  0
   -4.1387    2.3741   -7.7765 C   0  0  0  0  0  0  0  0  0  0  0  0
   -4.4182    1.1684   -7.0873 O   0  0  0  0  0  0  0  0  0  0  0  0
    5.9918    0.6303  -13.3799 C   0  0  0  0  0  0  0  0  0  0  0  0
    5.2207    2.4192  -14.9181 C   0  0  0  0  0  0  0  0  0  0  0  0
    6.6866    2.1459  -10.4963 C   0  0  0  0  0  0  0  0  0  0  0  0
    1.9083    1.2200  -11.1752 C   0  0  0  0  0  0  0  0  0  0  0  0
   -2.3870    4.8482   -8.5238 C   0  0  0  0  0  0  0  0  0  0  0  0
  1  2  1  0
  1  6  1  0
  1 17  1  1
  1 18  1  0
  2  3  1  0
  3  4  1  0
  4  5  1  0
  5  6  1  0
  5 19  1  6
  6  7  1  0
  7  8  2  0
  8  9  1  0
  9 10  2  0
  9 20  1  0
 10 11  1  0
 11 12  2  0
 12 13  1  0
 13 14  2  0
 13 21  1  0
 14 15  1  0
 15 16  1  0
M  END
$$$$
