
     RDKit          3D

 21 21  0  0  0  0  0  0  0  0999 V2000
    6.0991    3.1673  -11.8405 C   0  0  2  0  0  0  0  0  0  0  0  0
    7.5088    2.7500  -12.0501 C   0  0  0  0  0  0  0  0  0  0  0  0
    7.7326    1.7298  -13.1008 C   0  0  0  0  0  0  0  0  0  0  0  0
    6.8953    0.5124  -12.8026 C   0  0  0  0  0  0  0  0  0  0  0  0
    5.4474    0.9440  -12.8227 C   0  0  1  0  0  0  0  0  0  0  0  0
    5.1447    2.0073  -11.8207 C   0  0  0  0  0  0  0  0  0  0  0  0
    3.7385    2.3707  -11.9242 C   0  0  0  0  0  0  0  0  0  0  0  0
    2.7045    1.5697  -11.6218 C   0  0  0  0  0  0  0  0  0  0  0  0
    1.3627    2.0906  -11.5916 C   0  0  0  0  0  0  0  0  0  0  0  0
    0.3854    1.5852  -10.8785 C   0  0  0  0  0  0  0  0  0  0  0  0
   -0.9776    2.0456  -10.8214 C   0  0  0  0  0  0  0  0  0  0  0  0
   -2.0310    1.5321  -10.2714 C   0  0  0  0  0  0  0  0  0  0  0  0
   -2.7376    1.8513   -9.0473 C   0  0  0  0  0  0  0  0  0  0  0  0
   -4.0645    1.8915   -9.1324 C   0  0  0  0  0  0  0  0  0  0  0  0
   -5.0720    1.2921   -8.2869 C   0  0  0  0  0  0  0  0  0  0  0  0
   -6.1797    2.1746   -8.2574 O   0  0  0  0  0  0  0  0  0  0  0  0
    5.7545    4.2163  -12.8762 C   0  0  0  0  0  0  0  0  0  0  0  0
    6.0265    3.8040  -10.4438 C   0  0  0  0  0  0  0  0  0  0  0  0
    5.0228    1.2597  -14.2246 C   0  0  0  0  0  0  0  0  0  0  0  0
    1.0769    3.2934  -12.4380 C   0  0  0  0  0  0  0  0  0  0  0  0
   -2.0832    2.1164   -7.7626 C   0  0  0  0  0  0  0  0  0  0  0  0
  1  2  1  0
  1  6  1  0
  1 17  1  6
  1 18  1  0
  2  3  1  0
  3  4  1  0
  4  5  1  0
  5  6  1  0
  5 19  1  6
  6  7  1  0
  7  8  2  0
  8  9  1  0
  9 10  2  0
  9 20  1  0
 10 11  1  0
 11 12  2  0
 12 13  1  0
 13 14  2  0
 13 21  1  0
 14 15  1  0
 15 16  1  0
M  END
$$$$
