
     RDKit          3D

 21 21  0  0  0  0  0  0  0  0999 V2000
    6.0570    2.4426  -13.7701 C   0  0  2  0  0  0  0  0  0  0  0  0
    7.4458    2.8745  -14.0700 C   0  0  0  0  0  0  0  0  0  0  0  0
    8.3845    2.8782  -12.9239 C   0  0  0  0  0  0  0  0  0  0  0  0
    7.8250    3.7410  -11.8218 C   0  0  0  0  0  0  0  0  0  0  0  0
    6.5114    3.1301  -11.3924 C   0  0  1  0  0  0  0  0  0  0  0  0
    5.5195    3.0465  -12.5039 C   0  0  0  0  0  0  0  0  0  0  0  0
    4.2975    2.4322  -12.0043 C   0  0  0  0  0  0  0  0  0  0  0  0
    3.4485    2.9916  -11.1277 C   0  0  0  0  0  0  0  0  0  0  0  0
    2.1811    2.3714  -10.8421 C   0  0  0  0  0  0  0  0  0  0  0  0
    1.4638    2.6064   -9.7700 C   0  0  0  0  0  0  0  0  0  0  0  0
    0.0277    2.6534   -9.6777 C   0  0  0  0  0  0  0  0  0  0  0  0
   -0.7614    2.7205   -8.6537 C   0  0  0  0  0  0  0  0  0  0  0  0
   -2.0945    2.2019   -8.4228 C   0  0  0  0  0  0  0  0  0  0  0  0
   -2.9996    3.0828   -8.0049 C   0  0  0  0  0  0  0  0  0  0  0  0
   -4.0452    2.9481   -7.0163 C   0  0  0  0  0  0  0  0  0  0  0  0
   -5.1924    3.6087   -7.5205 O   0  0  0  0  0  0  0  0  0  0  0  0
    6.0160    0.9294  -13.7834 C   0  0  0  0  0  0  0  0  0  0  0  0
    5.1703    2.9746  -14.9070 C   0  0  0  0  0  0  0  0  0  0  0  0
    6.7546    1.8421  -10.6663 C   0  0  0  0  0  0  0  0  0  0  0  0
    1.6571    1.3919  -11.8475 C   0  0  0  0  0  0  0  0  0  0  0  0
   -2.4819    0.8028   -8.6266 C   0  0  0  0  0  0  0  0  0  0  0  0
  1  2  1  0
  1  6  1  0
  1 17  1  1
  1 18  1  0
  2  3  1  0
  3  4  1  0
  4  5  1  0
  5  6  1  0
  5 19  1  6
  6  7  1  0
  7  8  2  0
  8  9  1  0
  9 10  2  0
  9 20  1  0
 10 11  1  0
 11 12  2  0
 12 13  1  0
 13 14  2  0
 13 21  1  0
 14 15  1  0
 15 16  1  0
M  END
$$$$
