
     RDKit          3D

 21 21  0  0  0  0  0  0  0  0999 V2000
    3.1076    3.4395  -11.8742 C   0  0  2  0  0  0  0  0  0  0  0  0
    4.1078    2.6193  -12.6037 C   0  0  0  0  0  0  0  0  0  0  0  0
    3.6142    1.3360  -13.1555 C   0  0  0  0  0  0  0  0  0  0  0  0
    3.0136    0.5121  -12.0453 C   0  0  0  0  0  0  0  0  0  0  0  0
    1.8516    1.2950  -11.4796 C   0  0  1  0  0  0  0  0  0  0  0  0
    2.2560    2.6264  -10.9412 C   0  0  0  0  0  0  0  0  0  0  0  0
    1.0754    3.3129  -10.4363 C   0  0  0  0  0  0  0  0  0  0  0  0
    0.1049    2.7499   -9.6991 C   0  0  0  0  0  0  0  0  0  0  0  0
   -0.9592    3.5542   -9.1573 C   0  0  0  0  0  0  0  0  0  0  0  0
   -2.2339    3.2625   -9.2535 C   0  0  0  0  0  0  0  0  0  0  0  0
   -3.1811    3.1380   -8.1763 C   0  0  0  0  0  0  0  0  0  0  0  0
   -4.4572    2.9205   -8.1810 C   0  0  0  0  0  0  0  0  0  0  0  0
   -5.2567    1.8592   -8.7591 C   0  0  0  0  0  0  0  0  0  0  0  0
   -6.4883    1.7257   -8.2745 C   0  0  0  0  0  0  0  0  0  0  0  0
   -7.3368    0.5585   -8.1921 C   0  0  0  0  0  0  0  0  0  0  0  0
   -8.5643    0.9671   -7.6150 O   0  0  0  0  0  0  0  0  0  0  0  0
    2.3087    4.2293  -12.8890 C   0  0  0  0  0  0  0  0  0  0  0  0
    3.8953    4.4187  -10.9896 C   0  0  0  0  0  0  0  0  0  0  0  0
    0.7243    1.3300  -12.4662 C   0  0  0  0  0  0  0  0  0  0  0  0
   -0.5693    4.8082   -8.4361 C   0  0  0  0  0  0  0  0  0  0  0  0
   -4.7916    0.9609   -9.8201 C   0  0  0  0  0  0  0  0  0  0  0  0
  1  2  1  0
  1  6  1  0
  1 17  1  6
  1 18  1  0
  2  3  1  0
  3  4  1  0
  4  5  1  0
  5  6  1  0
  5 19  1  6
  6  7  1  0
  7  8  2  0
  8  9  1  0
  9 10  2  0
  9 20  1  0
 10 11  1  0
 11 12  2  0
 12 13  1  0
 13 14  2  0
 13 21  1  0
 14 15  1  0
 15 16  1  0
M  END
$$$$
