
     RDKit          3D

 21 21  0  0  0  0  0  0  0  0999 V2000
    4.5087    2.1014  -11.9652 C   0  0  2  0  0  0  0  0  0  0  0  0
    5.5577    2.1901  -13.0126 C   0  0  0  0  0  0  0  0  0  0  0  0
    5.3366    3.2083  -14.0658 C   0  0  0  0  0  0  0  0  0  0  0  0
    4.0012    2.9674  -14.7220 C   0  0  0  0  0  0  0  0  0  0  0  0
    2.9410    3.1109  -13.6550 C   0  0  1  0  0  0  0  0  0  0  0  0
    3.1170    2.1481  -12.5288 C   0  0  0  0  0  0  0  0  0  0  0  0
    2.0664    2.3706  -11.5456 C   0  0  0  0  0  0  0  0  0  0  0  0
    0.7479    2.2899  -11.7851 C   0  0  0  0  0  0  0  0  0  0  0  0
   -0.1970    2.3772  -10.7024 C   0  0  0  0  0  0  0  0  0  0  0  0
   -1.4403    1.9660  -10.7665 C   0  0  0  0  0  0  0  0  0  0  0  0
   -2.5753    2.5170  -10.0727 C   0  0  0  0  0  0  0  0  0  0  0  0
   -3.8472    2.3547  -10.2504 C   0  0  0  0  0  0  0  0  0  0  0  0
   -4.8322    1.5676   -9.5362 C   0  0  0  0  0  0  0  0  0  0  0  0
   -5.5000    0.6724  -10.2589 C   0  0  0  0  0  0  0  0  0  0  0  0
   -6.5506   -0.2418   -9.8725 C   0  0  0  0  0  0  0  0  0  0  0  0
   -6.9411   -0.9534  -11.0335 O   0  0  0  0  0  0  0  0  0  0  0  0
    4.7783    3.1726  -10.9300 C   0  0  0  0  0  0  0  0  0  0  0  0
    4.6557    0.7220  -11.3040 C   0  0  0  0  0  0  0  0  0  0  0  0
    2.8145    4.5461  -13.2434 C   0  0  0  0  0  0  0  0  0  0  0  0
    0.2868    2.9817   -9.4197 C   0  0  0  0  0  0  0  0  0  0  0  0
   -5.1137    1.7015   -8.1038 C   0  0  0  0  0  0  0  0  0  0  0  0
  1  2  1  0
  1  6  1  0
  1 17  1  1
  1 18  1  0
  2  3  1  0
  3  4  1  0
  4  5  1  0
  5  6  1  0
  5 19  1  1
  6  7  1  0
  7  8  2  0
  8  9  1  0
  9 10  2  0
  9 20  1  0
 10 11  1  0
 11 12  2  0
 12 13  1  0
 13 14  2  0
 13 21  1  0
 14 15  1  0
 15 16  1  0
M  END
$$$$
