
     RDKit          3D

 21 21  0  0  0  0  0  0  0  0999 V2000
   -5.1663    0.4282  -15.7023 C   0  0  2  0  0  0  0  0  0  0  0  0
   -6.6016    0.0850  -15.5365 C   0  0  0  0  0  0  0  0  0  0  0  0
   -7.3752    0.9593  -14.6244 C   0  0  0  0  0  0  0  0  0  0  0  0
   -6.7121    0.9816  -13.2709 C   0  0  0  0  0  0  0  0  0  0  0  0
   -5.3254    1.5522  -13.4565 C   0  0  1  0  0  0  0  0  0  0  0  0
   -4.4907    0.7532  -14.4006 C   0  0  0  0  0  0  0  0  0  0  0  0
   -3.1849    1.3843  -14.5304 C   0  0  0  0  0  0  0  0  0  0  0  0
   -2.3156    1.5853  -13.5273 C   0  0  0  0  0  0  0  0  0  0  0  0
   -0.9687    2.0119  -13.8036 C   0  0  0  0  0  0  0  0  0  0  0  0
    0.0900    1.6009  -13.1484 C   0  0  0  0  0  0  0  0  0  0  0  0
    0.8974    2.3653  -12.2336 C   0  0  0  0  0  0  0  0  0  0  0  0
    1.6249    2.0017  -11.2264 C   0  0  0  0  0  0  0  0  0  0  0  0
    3.0028    2.2813  -10.8760 C   0  0  0  0  0  0  0  0  0  0  0  0
    3.3062    2.1931   -9.5838 C   0  0  0  0  0  0  0  0  0  0  0  0
    4.5243    1.7573   -8.9393 C   0  0  0  0  0  0  0  0  0  0  0  0
    5.3278    2.9054   -8.7320 O   0  0  0  0  0  0  0  0  0  0  0  0
   -5.0571    1.5320  -16.7326 C   0  0  0  0  0  0  0  0  0  0  0  0
   -4.4679   -0.8291  -16.2439 C   0  0  0  0  0  0  0  0  0  0  0  0
   -5.4074    3.0150  -13.7707 C   0  0  0  0  0  0  0  0  0  0  0  0
   -0.7777    2.9934  -14.9195 C   0  0  0  0  0  0  0  0  0  0  0  0
    4.0439    2.6381  -11.8444 C   0  0  0  0  0  0  0  0  0  0  0  0
  1  2  1  0
  1  6  1  0
  1 17  1  6
  1 18  1  0
  2  3  1  0
  3  4  1  0
  4  5  1  0
  5  6  1  0
  5 19  1  6
  6  7  1  0
  7  8  2  0
  8  9  1  0
  9 10  2  0
  9 20  1  0
 10 11  1  0
 11 12  2  0
 12 13  1  0
 13 14  2  0
 13 21  1  0
 14 15  1  0
 15 16  1  0
M  END
$$$$
