
     RDKit          3D

 12 12  0  0  0  0  0  0  0  0999 V2000
  -21.9223   19.7363   13.7735 O   0  0  0  0  0  0  0  0  0  0  0  0
  -21.5252   19.4115   14.9059 C   0  0  0  0  0  0  0  0  0  0  0  0
  -22.1792   19.8309   16.0389 O   0  0  0  0  0  0  0  0  0  0  0  0
  -20.3233   18.5576   14.9808 C   0  0  0  0  0  0  0  0  0  0  0  0
  -19.8766   18.2506   16.1387 N   0  0  0  0  0  0  0  0  0  0  0  0
  -18.7562   17.4566   16.4168 C   0  0  0  0  0  0  0  0  0  0  0  0
  -18.3157   17.1564   17.8259 C   0  0  0  0  0  0  0  0  0  0  0  0
  -18.0495   16.9449   15.4290 C   0  0  0  0  0  0  0  0  0  0  0  0
  -18.4836   17.2410   14.0755 C   0  0  0  0  0  0  0  0  0  0  0  0
  -17.8119   16.7543   13.1049 O   0  0  0  0  0  0  0  0  0  0  0  0
  -19.6599   18.0745   13.7533 C   0  0  0  0  0  0  0  0  0  0  0  0
  -20.6226   17.3317   13.0415 O   0  0  0  0  0  0  0  0  0  0  0  0
  1  2  2  0
  2  3  1  0
  2  4  1  0
  4  5  2  0
  4 11  1  0
  5  6  1  0
  6  7  1  0
  6  8  2  0
  8  9  1  0
  9 10  2  0
  9 11  1  0
 11 12  1  0
M  END
$$$$
