
     RDKit          3D

 12 12  0  0  0  0  0  0  0  0999 V2000
  -17.6892   15.5319   14.7349 O   0  0  0  0  0  0  0  0  0  0  0  0
  -18.2455   16.2832   15.5544 C   0  0  0  0  0  0  0  0  0  0  0  0
  -17.8305   16.3442   16.8626 O   0  0  0  0  0  0  0  0  0  0  0  0
  -19.3687   17.1053   15.0627 C   0  0  0  0  0  0  0  0  0  0  0  0
  -19.9755   17.8554   15.9015 N   0  0  0  0  0  0  0  0  0  0  0  0
  -21.0574   18.7036   15.6313 C   0  0  0  0  0  0  0  0  0  0  0  0
  -21.7006   19.5484   16.7002 C   0  0  0  0  0  0  0  0  0  0  0  0
  -21.5451   18.7812   14.4094 C   0  0  0  0  0  0  0  0  0  0  0  0
  -20.9172   17.9625   13.3878 C   0  0  0  0  0  0  0  0  0  0  0  0
  -21.3752   18.0237   12.1977 O   0  0  0  0  0  0  0  0  0  0  0  0
  -19.7761   17.0599   13.6442 C   0  0  0  0  0  0  0  0  0  0  0  0
  -18.6504   17.4459   12.8898 O   0  0  0  0  0  0  0  0  0  0  0  0
  1  2  2  0
  2  3  1  0
  2  4  1  0
  4  5  2  0
  4 11  1  0
  5  6  1  0
  6  7  1  0
  6  8  2  0
  8  9  1  0
  9 10  2  0
  9 11  1  0
 11 12  1  0
M  END
$$$$
