
     RDKit          3D

 12 12  0  0  0  0  0  0  0  0999 V2000
  -17.5229   15.7098   14.5043 O   0  0  0  0  0  0  0  0  0  0  0  0
  -18.1083   16.4329   15.3289 C   0  0  0  0  0  0  0  0  0  0  0  0
  -17.7166   16.4760   16.6450 O   0  0  0  0  0  0  0  0  0  0  0  0
  -19.2401   17.2415   14.8344 C   0  0  0  0  0  0  0  0  0  0  0  0
  -19.8648   17.9759   15.6740 N   0  0  0  0  0  0  0  0  0  0  0  0
  -20.9574   18.8097   15.4016 C   0  0  0  0  0  0  0  0  0  0  0  0
  -21.6216   19.6366   16.4715 C   0  0  0  0  0  0  0  0  0  0  0  0
  -21.4366   18.8890   14.1764 C   0  0  0  0  0  0  0  0  0  0  0  0
  -20.7884   18.0876   13.1538 C   0  0  0  0  0  0  0  0  0  0  0  0
  -21.2381   18.1508   11.9606 O   0  0  0  0  0  0  0  0  0  0  0  0
  -19.6357   17.2006   13.4125 C   0  0  0  0  0  0  0  0  0  0  0  0
  -18.5102   17.6092   12.6699 O   0  0  0  0  0  0  0  0  0  0  0  0
  1  2  2  0
  2  3  1  0
  2  4  1  0
  4  5  2  0
  4 11  1  0
  5  6  1  0
  6  7  1  0
  6  8  2  0
  8  9  1  0
  9 10  2  0
  9 11  1  0
 11 12  1  0
M  END
$$$$
