
     RDKit          3D

 12 12  0  0  0  0  0  0  0  0999 V2000
  -21.0232   18.5621   11.9288 O   0  0  0  0  0  0  0  0  0  0  0  0
  -21.2600   18.6297   13.1473 C   0  0  0  0  0  0  0  0  0  0  0  0
  -22.3742   19.2775   13.6229 O   0  0  0  0  0  0  0  0  0  0  0  0
  -20.2946   17.9853   14.0595 C   0  0  0  0  0  0  0  0  0  0  0  0
  -20.5434   18.0129   15.3133 N   0  0  0  0  0  0  0  0  0  0  0  0
  -19.7554   17.4614   16.3321 C   0  0  0  0  0  0  0  0  0  0  0  0
  -20.1444   17.5519   17.7848 C   0  0  0  0  0  0  0  0  0  0  0  0
  -18.6330   16.8386   16.0334 C   0  0  0  0  0  0  0  0  0  0  0  0
  -18.2686   16.7577   14.6303 C   0  0  0  0  0  0  0  0  0  0  0  0
  -17.1847   16.1581   14.3206 O   0  0  0  0  0  0  0  0  0  0  0  0
  -19.0796   17.3297   13.5360 C   0  0  0  0  0  0  0  0  0  0  0  0
  -19.5151   16.3216   12.6532 O   0  0  0  0  0  0  0  0  0  0  0  0
  1  2  2  0
  2  3  1  0
  2  4  1  0
  4  5  2  0
  4 11  1  0
  5  6  1  0
  6  7  1  0
  6  8  2  0
  8  9  1  0
  9 10  2  0
  9 11  1  0
 11 12  1  0
M  END
$$$$
