
     RDKit          3D

 12 12  0  0  0  0  0  0  0  0999 V2000
  -17.6855   15.5767   14.6995 O   0  0  0  0  0  0  0  0  0  0  0  0
  -18.2496   16.3213   15.5198 C   0  0  0  0  0  0  0  0  0  0  0  0
  -17.8301   16.3914   16.8261 O   0  0  0  0  0  0  0  0  0  0  0  0
  -19.3872   17.1252   15.0311 C   0  0  0  0  0  0  0  0  0  0  0  0
  -19.9959   17.8750   15.8689 N   0  0  0  0  0  0  0  0  0  0  0  0
  -21.0905   18.7075   15.6011 C   0  0  0  0  0  0  0  0  0  0  0  0
  -21.7347   19.5536   16.6684 C   0  0  0  0  0  0  0  0  0  0  0  0
  -21.5899   18.7684   14.3829 C   0  0  0  0  0  0  0  0  0  0  0  0
  -20.9609   17.9487   13.3629 C   0  0  0  0  0  0  0  0  0  0  0  0
  -21.4302   17.9940   12.1764 O   0  0  0  0  0  0  0  0  0  0  0  0
  -19.8066   17.0625   13.6167 C   0  0  0  0  0  0  0  0  0  0  0  0
  -18.6924   17.4557   12.8490 O   0  0  0  0  0  0  0  0  0  0  0  0
  1  2  2  0
  2  3  1  0
  2  4  1  0
  4  5  2  0
  4 11  1  0
  5  6  1  0
  6  7  1  0
  6  8  2  0
  8  9  1  0
  9 10  2  0
  9 11  1  0
 11 12  1  0
M  END
$$$$
