
     RDKit          3D

 12 12  0  0  0  0  0  0  0  0999 V2000
  -17.3611   15.5401   14.6508 O   0  0  0  0  0  0  0  0  0  0  0  0
  -17.9221   16.3058   15.4536 C   0  0  0  0  0  0  0  0  0  0  0  0
  -17.5235   16.3804   16.7662 O   0  0  0  0  0  0  0  0  0  0  0  0
  -19.0328   17.1298   14.9371 C   0  0  0  0  0  0  0  0  0  0  0  0
  -19.6391   17.9012   15.7567 N   0  0  0  0  0  0  0  0  0  0  0  0
  -20.7101   18.7550   15.4616 C   0  0  0  0  0  0  0  0  0  0  0  0
  -21.3538   19.6258   16.5091 C   0  0  0  0  0  0  0  0  0  0  0  0
  -21.1866   18.8148   14.2343 C   0  0  0  0  0  0  0  0  0  0  0  0
  -20.5583   17.9711   13.2334 C   0  0  0  0  0  0  0  0  0  0  0  0
  -21.0057   18.0149   12.0384 O   0  0  0  0  0  0  0  0  0  0  0  0
  -19.4287   17.0622   13.5162 C   0  0  0  0  0  0  0  0  0  0  0  0
  -18.2928   17.4229   12.7646 O   0  0  0  0  0  0  0  0  0  0  0  0
  1  2  2  0
  2  3  1  0
  2  4  1  0
  4  5  2  0
  4 11  1  0
  5  6  1  0
  6  7  1  0
  6  8  2  0
  8  9  1  0
  9 10  2  0
  9 11  1  0
 11 12  1  0
M  END
$$$$
