
     RDKit          3D

 12 12  0  0  0  0  0  0  0  0999 V2000
  -17.5409   15.8074   14.7776 O   0  0  0  0  0  0  0  0  0  0  0  0
  -18.1737   16.4827   15.6077 C   0  0  0  0  0  0  0  0  0  0  0  0
  -17.8742   16.4300   16.9475 O   0  0  0  0  0  0  0  0  0  0  0  0
  -19.2583   17.3419   15.0933 C   0  0  0  0  0  0  0  0  0  0  0  0
  -19.8979   18.0665   15.9303 N   0  0  0  0  0  0  0  0  0  0  0  0
  -20.9525   18.9421   15.6402 C   0  0  0  0  0  0  0  0  0  0  0  0
  -21.6391   19.7525   16.7087 C   0  0  0  0  0  0  0  0  0  0  0  0
  -21.3745   19.0773   14.3990 C   0  0  0  0  0  0  0  0  0  0  0  0
  -20.7053   18.2913   13.3780 C   0  0  0  0  0  0  0  0  0  0  0  0
  -21.0996   18.4085   12.1693 O   0  0  0  0  0  0  0  0  0  0  0  0
  -19.5916   17.3611   13.6550 C   0  0  0  0  0  0  0  0  0  0  0  0
  -18.4229   17.7598   12.9766 O   0  0  0  0  0  0  0  0  0  0  0  0
  1  2  2  0
  2  3  1  0
  2  4  1  0
  4  5  2  0
  4 11  1  0
  5  6  1  0
  6  7  1  0
  6  8  2  0
  8  9  1  0
  9 10  2  0
  9 11  1  0
 11 12  1  0
M  END
$$$$
