
     RDKit          3D

 12 12  0  0  0  0  0  0  0  0999 V2000
  -17.3536   15.4961   14.6444 O   0  0  0  0  0  0  0  0  0  0  0  0
  -17.9141   16.2582   15.4510 C   0  0  0  0  0  0  0  0  0  0  0  0
  -17.5222   16.3184   16.7663 O   0  0  0  0  0  0  0  0  0  0  0  0
  -19.0167   17.0939   14.9359 C   0  0  0  0  0  0  0  0  0  0  0  0
  -19.6207   17.8639   15.7585 N   0  0  0  0  0  0  0  0  0  0  0  0
  -20.6842   18.7276   15.4653 C   0  0  0  0  0  0  0  0  0  0  0  0
  -21.3259   19.5955   16.5164 C   0  0  0  0  0  0  0  0  0  0  0  0
  -21.1552   18.7996   14.2364 C   0  0  0  0  0  0  0  0  0  0  0  0
  -20.5290   17.9586   13.2321 C   0  0  0  0  0  0  0  0  0  0  0  0
  -20.9711   18.0141   12.0356 O   0  0  0  0  0  0  0  0  0  0  0  0
  -19.4071   17.0394   13.5130 C   0  0  0  0  0  0  0  0  0  0  0  0
  -18.2656   17.3972   12.7686 O   0  0  0  0  0  0  0  0  0  0  0  0
  1  2  2  0
  2  3  1  0
  2  4  1  0
  4  5  2  0
  4 11  1  0
  5  6  1  0
  6  7  1  0
  6  8  2  0
  8  9  1  0
  9 10  2  0
  9 11  1  0
 11 12  1  0
M  END
$$$$
