
     RDKit          3D

 12 12  0  0  0  0  0  0  0  0999 V2000
  -20.9193   18.7045   12.1307 O   0  0  0  0  0  0  0  0  0  0  0  0
  -21.1706   18.7988   13.3446 C   0  0  0  0  0  0  0  0  0  0  0  0
  -22.2691   19.4906   13.7942 O   0  0  0  0  0  0  0  0  0  0  0  0
  -20.2400   18.1371   14.2802 C   0  0  0  0  0  0  0  0  0  0  0  0
  -20.5252   18.1593   15.5262 N   0  0  0  0  0  0  0  0  0  0  0  0
  -19.7740   17.5918   16.5639 C   0  0  0  0  0  0  0  0  0  0  0  0
  -20.2046   17.6772   18.0052 C   0  0  0  0  0  0  0  0  0  0  0  0
  -18.6505   16.9579   16.2939 C   0  0  0  0  0  0  0  0  0  0  0  0
  -18.2459   16.8822   14.9016 C   0  0  0  0  0  0  0  0  0  0  0  0
  -17.1604   16.2720   14.6196 O   0  0  0  0  0  0  0  0  0  0  0  0
  -19.0177   17.4708   13.7880 C   0  0  0  0  0  0  0  0  0  0  0  0
  -19.4386   16.4739   12.8857 O   0  0  0  0  0  0  0  0  0  0  0  0
  1  2  2  0
  2  3  1  0
  2  4  1  0
  4  5  2  0
  4 11  1  0
  5  6  1  0
  6  7  1  0
  6  8  2  0
  8  9  1  0
  9 10  2  0
  9 11  1  0
 11 12  1  0
M  END
$$$$
