
     RDKit          3D

 12 12  0  0  0  0  0  0  0  0999 V2000
  -17.5321   15.7592   14.8406 O   0  0  0  0  0  0  0  0  0  0  0  0
  -18.1162   16.4809   15.6673 C   0  0  0  0  0  0  0  0  0  0  0  0
  -17.7384   16.5032   16.9879 O   0  0  0  0  0  0  0  0  0  0  0  0
  -19.2310   17.3113   15.1701 C   0  0  0  0  0  0  0  0  0  0  0  0
  -19.8619   18.0359   16.0135 N   0  0  0  0  0  0  0  0  0  0  0  0
  -20.9410   18.8866   15.7395 C   0  0  0  0  0  0  0  0  0  0  0  0
  -21.6144   19.6995   16.8144 C   0  0  0  0  0  0  0  0  0  0  0  0
  -21.3988   18.9949   14.5084 C   0  0  0  0  0  0  0  0  0  0  0  0
  -20.7419   18.2067   13.4811 C   0  0  0  0  0  0  0  0  0  0  0  0
  -21.1708   18.2981   12.2820 O   0  0  0  0  0  0  0  0  0  0  0  0
  -19.6032   17.3024   13.7413 C   0  0  0  0  0  0  0  0  0  0  0  0
  -18.4611   17.7133   13.0256 O   0  0  0  0  0  0  0  0  0  0  0  0
  1  2  2  0
  2  3  1  0
  2  4  1  0
  4  5  2  0
  4 11  1  0
  5  6  1  0
  6  7  1  0
  6  8  2  0
  8  9  1  0
  9 10  2  0
  9 11  1  0
 11 12  1  0
M  END
$$$$
