
     RDKit          3D

 12 12  0  0  0  0  0  0  0  0999 V2000
  -21.1170   18.7052   12.1356 O   0  0  0  0  0  0  0  0  0  0  0  0
  -21.3441   18.8827   13.3449 C   0  0  0  0  0  0  0  0  0  0  0  0
  -22.4754   19.5359   13.7702 O   0  0  0  0  0  0  0  0  0  0  0  0
  -20.3482   18.3625   14.3024 C   0  0  0  0  0  0  0  0  0  0  0  0
  -20.5953   18.4847   15.5508 N   0  0  0  0  0  0  0  0  0  0  0  0
  -19.7806   18.0580   16.6078 C   0  0  0  0  0  0  0  0  0  0  0  0
  -20.1703   18.2531   18.0500 C   0  0  0  0  0  0  0  0  0  0  0  0
  -18.6314   17.4640   16.3560 C   0  0  0  0  0  0  0  0  0  0  0  0
  -18.2665   17.2815   14.9625 C   0  0  0  0  0  0  0  0  0  0  0  0
  -17.1569   16.7081   14.6980 O   0  0  0  0  0  0  0  0  0  0  0  0
  -19.1054   17.7212   13.8288 C   0  0  0  0  0  0  0  0  0  0  0  0
  -19.4959   16.6232   13.0368 O   0  0  0  0  0  0  0  0  0  0  0  0
  1  2  2  0
  2  3  1  0
  2  4  1  0
  4  5  2  0
  4 11  1  0
  5  6  1  0
  6  7  1  0
  6  8  2  0
  8  9  1  0
  9 10  2  0
  9 11  1  0
 11 12  1  0
M  END
$$$$
