
     RDKit          3D

 12 12  0  0  0  0  0  0  0  0999 V2000
  -21.0216   18.4492   12.2405 O   0  0  0  0  0  0  0  0  0  0  0  0
  -21.2883   18.5655   13.4491 C   0  0  0  0  0  0  0  0  0  0  0  0
  -22.4256   19.2112   13.8699 O   0  0  0  0  0  0  0  0  0  0  0  0
  -20.3328   17.9811   14.4108 C   0  0  0  0  0  0  0  0  0  0  0  0
  -20.6216   18.0405   15.6548 N   0  0  0  0  0  0  0  0  0  0  0  0
  -19.8495   17.5468   16.7146 C   0  0  0  0  0  0  0  0  0  0  0  0
  -20.2866   17.6708   18.1511 C   0  0  0  0  0  0  0  0  0  0  0  0
  -18.6997   16.9506   16.4706 C   0  0  0  0  0  0  0  0  0  0  0  0
  -18.2890   16.8370   15.0826 C   0  0  0  0  0  0  0  0  0  0  0  0
  -17.1781   16.2626   14.8258 O   0  0  0  0  0  0  0  0  0  0  0  0
  -19.0824   17.3481   13.9461 C   0  0  0  0  0  0  0  0  0  0  0  0
  -19.4588   16.2993   13.0838 O   0  0  0  0  0  0  0  0  0  0  0  0
  1  2  2  0
  2  3  1  0
  2  4  1  0
  4  5  2  0
  4 11  1  0
  5  6  1  0
  6  7  1  0
  6  8  2  0
  8  9  1  0
  9 10  2  0
  9 11  1  0
 11 12  1  0
M  END
$$$$
