
     RDKit          3D

 12 12  0  0  0  0  0  0  0  0999 V2000
  -20.9411   18.6198   12.0210 O   0  0  0  0  0  0  0  0  0  0  0  0
  -21.2201   18.7105   13.2291 C   0  0  0  0  0  0  0  0  0  0  0  0
  -22.3632   19.3445   13.6518 O   0  0  0  0  0  0  0  0  0  0  0  0
  -20.2724   18.1090   14.1879 C   0  0  0  0  0  0  0  0  0  0  0  0
  -20.5792   18.1311   15.4288 N   0  0  0  0  0  0  0  0  0  0  0  0
  -19.8173   17.6157   16.4856 C   0  0  0  0  0  0  0  0  0  0  0  0
  -20.2757   17.6957   17.9185 C   0  0  0  0  0  0  0  0  0  0  0  0
  -18.6582   17.0376   16.2418 C   0  0  0  0  0  0  0  0  0  0  0  0
  -18.2269   16.9664   14.8573 C   0  0  0  0  0  0  0  0  0  0  0  0
  -17.1068   16.4100   14.6007 O   0  0  0  0  0  0  0  0  0  0  0  0
  -19.0093   17.5011   13.7240 C   0  0  0  0  0  0  0  0  0  0  0  0
  -19.3630   16.4730   12.8278 O   0  0  0  0  0  0  0  0  0  0  0  0
  1  2  2  0
  2  3  1  0
  2  4  1  0
  4  5  2  0
  4 11  1  0
  5  6  1  0
  6  7  1  0
  6  8  2  0
  8  9  1  0
  9 10  2  0
  9 11  1  0
 11 12  1  0
M  END
$$$$
