
     RDKit          3D

 12 12  0  0  0  0  0  0  0  0999 V2000
  -21.0752   18.4665   12.1938 O   0  0  0  0  0  0  0  0  0  0  0  0
  -21.3382   18.6199   13.3991 C   0  0  0  0  0  0  0  0  0  0  0  0
  -22.4665   19.2913   13.8035 O   0  0  0  0  0  0  0  0  0  0  0  0
  -20.3882   18.0509   14.3753 C   0  0  0  0  0  0  0  0  0  0  0  0
  -20.6803   18.1367   15.6170 N   0  0  0  0  0  0  0  0  0  0  0  0
  -19.9137   17.6610   16.6889 C   0  0  0  0  0  0  0  0  0  0  0  0
  -20.3544   17.8160   18.1213 C   0  0  0  0  0  0  0  0  0  0  0  0
  -18.7658   17.0549   16.4605 C   0  0  0  0  0  0  0  0  0  0  0  0
  -18.3515   16.9115   15.0764 C   0  0  0  0  0  0  0  0  0  0  0  0
  -17.2425   16.3270   14.8346 O   0  0  0  0  0  0  0  0  0  0  0  0
  -19.1393   17.4030   13.9274 C   0  0  0  0  0  0  0  0  0  0  0  0
  -19.5179   16.3387   13.0853 O   0  0  0  0  0  0  0  0  0  0  0  0
  1  2  2  0
  2  3  1  0
  2  4  1  0
  4  5  2  0
  4 11  1  0
  5  6  1  0
  6  7  1  0
  6  8  2  0
  8  9  1  0
  9 10  2  0
  9 11  1  0
 11 12  1  0
M  END
$$$$
