
     RDKit          3D

 59 60  0  0  0  0  0  0  0  0999 V2000
  -10.8647   -0.0420  -22.1334 N   0  0  0  0  0  4  0  0  0  0  0  0
   -9.7911   -0.9747  -22.4110 C   0  0  2  0  0  0  0  0  0  0  0  0
   -8.6015   -0.1063  -22.7847 C   0  0  0  0  0  0  0  0  0  0  0  0
   -8.8695    1.0179  -23.2551 O   0  0  0  0  0  0  0  0  0  0  0  0
  -10.0658   -1.8068  -23.6420 C   0  0  0  0  0  0  0  0  0  0  0  0
   -9.5023   -1.2603  -24.9026 C   0  0  0  0  0  0  0  0  0  0  0  0
   -9.2735   -2.2541  -26.0048 C   0  0  0  0  0  0  0  0  0  0  0  0
  -10.4424   -2.5418  -26.7896 N   0  0  0  0  0  0  0  0  0  0  0  0
  -10.5021   -2.3051  -28.2128 C   0  0  0  0  0  0  0  0  0  0  0  0
  -11.6061   -2.4951  -28.8304 N   0  0  0  0  0  0  0  0  0  0  0  0
   -9.3214   -1.8722  -28.9085 N   0  0  0  0  0  0  0  0  0  0  0  0
   -7.2736   -0.5131  -22.6188 N   0  0  0  0  0  0  0  0  0  0  0  0
   -6.1300    0.3269  -22.7896 C   0  0  2  0  0  0  0  0  0  0  0  0
   -5.7465    0.6526  -24.1600 C   0  0  0  0  0  0  0  0  0  0  0  0
   -5.1069   -0.2418  -24.8339 O   0  0  0  0  0  0  0  0  0  0  0  0
   -4.9611   -0.1506  -21.9481 C   0  0  0  0  0  0  0  0  0  0  0  0
   -5.0850    0.3659  -20.5519 C   0  0  0  0  0  0  0  0  0  0  0  0
   -6.1515    1.2079  -20.2230 C   0  0  0  0  0  0  0  0  0  0  0  0
   -4.1940    0.0648  -19.5529 C   0  0  0  0  0  0  0  0  0  0  0  0
   -6.3189    1.7205  -18.9660 C   0  0  0  0  0  0  0  0  0  0  0  0
   -4.3631    0.5787  -18.2993 C   0  0  0  0  0  0  0  0  0  0  0  0
   -5.4179    1.4106  -17.9754 C   0  0  0  0  0  0  0  0  0  0  0  0
   -5.5695    1.9148  -16.7074 O   0  0  0  0  0  0  0  0  0  0  0  0
   -5.9878    1.8596  -24.8688 N   0  0  0  0  0  0  0  0  0  0  0  0
   -5.5830    1.9765  -26.2541 C   0  0  2  0  0  0  0  0  0  0  0  0
   -4.5097    0.9687  -26.5748 C   0  0  0  0  0  0  0  0  0  0  0  0
   -3.5953    0.7707  -25.7664 O   0  0  0  0  0  0  0  0  0  0  0  0
   -5.1593    3.3149  -26.7009 C   0  0  0  0  0  0  0  0  0  0  0  0
   -4.5426    0.2368  -27.7932 N   0  0  0  0  0  0  0  0  0  0  0  0
   -3.5454   -0.6944  -28.2045 C   0  0  2  0  0  0  0  0  0  0  0  0
   -3.2606   -0.7091  -29.6736 C   0  0  0  0  0  0  0  0  0  0  0  0
   -4.1774   -1.0076  -30.4511 O   0  0  0  0  0  0  0  0  0  0  0  0
   -4.0264   -2.1044  -27.8472 C   0  0  1  0  0  0  0  0  0  0  0  0
   -3.0771   -3.1573  -28.3807 C   0  0  0  0  0  0  0  0  0  0  0  0
   -4.2260   -2.2477  -26.3703 C   0  0  0  0  0  0  0  0  0  0  0  0
   -1.9917   -0.3990  -30.1762 N   0  0  0  0  0  0  0  0  0  0  0  0
   -1.5933   -0.4446  -31.5988 C   0  0  2  0  0  0  0  0  0  0  0  0
   -1.7708   -1.7616  -32.1396 C   0  0  0  0  0  0  0  0  0  0  0  0
   -1.3127   -2.7319  -31.3974 O   0  0  0  0  0  0  0  0  0  0  0  0
   -0.2633    0.2246  -31.6479 C   0  0  1  0  0  0  0  0  0  0  0  0
    0.0486    0.4690  -33.1534 C   0  0  0  0  0  0  0  0  0  0  0  0
   -0.1445    1.5158  -30.9266 C   0  0  0  0  0  0  0  0  0  0  0  0
   -2.3619   -2.1652  -33.3416 N   0  0  0  0  0  0  0  0  0  0  0  0
   -2.6265   -3.4510  -33.8606 C   0  0  2  0  0  0  0  0  0  0  0  0
   -1.5290   -4.1897  -34.4780 C   0  0  0  0  0  0  0  0  0  0  0  0
   -0.4819   -4.4520  -33.7934 O   0  0  0  0  0  0  0  0  0  0  0  0
   -3.7572   -3.2941  -34.8902 C   0  0  0  0  0  0  0  0  0  0  0  0
   -3.4876   -1.9320  -35.4437 C   0  0  0  0  0  0  0  0  0  0  0  0
   -2.7956   -1.1741  -34.3551 C   0  0  0  0  0  0  0  0  0  0  0  0
   -1.4866   -4.6787  -35.8318 N   0  0  0  0  0  0  0  0  0  0  0  0
   -0.4614   -5.6386  -36.2245 C   0  0  2  0  0  0  0  0  0  0  0  0
   -0.7098   -6.0194  -37.6356 C   0  0  0  0  0  0  0  0  0  0  0  0
   -1.8686   -6.3480  -37.9795 O   0  0  0  0  0  0  0  0  0  0  0  0
   -0.3066   -6.7900  -35.2936 C   0  0  0  0  0  0  0  0  0  0  0  0
    0.7617   -7.7190  -35.7386 C   0  0  0  0  0  0  0  0  0  0  0  0
    0.9387   -8.9192  -35.0811 O   0  0  0  0  0  0  0  0  0  0  0  0
    1.5281   -7.4598  -36.7051 O   0  0  0  0  0  0  0  0  0  0  0  0
    0.2743   -6.0335  -38.6137 O   0  0  0  0  0  0  0  0  0  0  0  0
  -12.5169   -2.7586  -28.4556 H   0  0  0  0  0  0  0  0  0  0  0  0
  2  1  1  6
  2  3  1  0
  2  5  1  0
  3  4  2  0
  3 12  1  0
  5  6  1  0
  6  7  1  0
  7  8  1  0
  8  9  1  0
  9 10  2  0
  9 11  1  0
 12 13  1  0
 13 14  1  0
 13 16  1  6
 14 15  2  0
 14 24  1  0
 16 17  1  0
 17 18  2  0
 17 19  1  0
 18 20  1  0
 19 21  2  0
 20 22  2  0
 21 22  1  0
 22 23  1  0
 24 25  1  0
 25 26  1  0
 25 28  1  1
 26 27  2  0
 26 29  1  0
 30 29  1  6
 30 31  1  0
 30 33  1  0
 31 32  2  0
 31 36  1  0
 33 34  1  1
 33 35  1  0
 37 36  1  1
 37 38  1  0
 37 40  1  0
 38 39  2  0
 38 43  1  0
 40 41  1  6
 40 42  1  0
 43 44  1  0
 43 49  1  0
 44 45  1  6
 44 47  1  0
 45 46  2  0
 45 50  1  0
 47 48  1  0
 48 49  1  0
 50 51  1  0
 51 52  1  0
 51 54  1  1
 52 53  2  0
 52 58  1  0
 54 55  1  0
 55 56  1  0
 55 57  2  0
 10 59  1  0
M  CHG  1   1   1
M  END
$$$$
