
     RDKit          3D

 59 60  0  0  0  0  0  0  0  0999 V2000
    0.4705    3.5792  -23.1619 N   0  0  0  0  0  4  0  0  0  0  0  0
   -0.2339    2.8847  -24.2207 C   0  0  2  0  0  0  0  0  0  0  0  0
   -0.7672    1.6174  -23.5739 C   0  0  0  0  0  0  0  0  0  0  0  0
    0.0263    0.6563  -23.5144 O   0  0  0  0  0  0  0  0  0  0  0  0
    0.7023    2.4026  -25.3045 C   0  0  0  0  0  0  0  0  0  0  0  0
    0.3643    2.8690  -26.6732 C   0  0  0  0  0  0  0  0  0  0  0  0
   -0.7105    2.0973  -27.3832 C   0  0  0  0  0  0  0  0  0  0  0  0
   -1.2117    2.7396  -28.5669 N   0  0  0  0  0  0  0  0  0  0  0  0
   -2.5509    3.2722  -28.6560 C   0  0  0  0  0  0  0  0  0  0  0  0
   -3.5465    2.4754  -28.5550 N   0  0  0  0  0  0  0  0  0  0  0  0
   -2.7398    4.6813  -28.8664 N   0  0  0  0  0  0  0  0  0  0  0  0
   -2.0642    1.5054  -23.0624 N   0  0  0  0  0  0  0  0  0  0  0  0
   -3.2310    2.0871  -23.6481 C   0  0  2  0  0  0  0  0  0  0  0  0
   -3.5592    1.6822  -25.0118 C   0  0  0  0  0  0  0  0  0  0  0  0
   -2.9551    2.2840  -25.9793 O   0  0  0  0  0  0  0  0  0  0  0  0
   -3.2546    3.5924  -23.4583 C   0  0  0  0  0  0  0  0  0  0  0  0
   -2.6853    3.9538  -22.1254 C   0  0  0  0  0  0  0  0  0  0  0  0
   -1.9317    5.1240  -21.9946 C   0  0  0  0  0  0  0  0  0  0  0  0
   -2.8534    3.1883  -20.9992 C   0  0  0  0  0  0  0  0  0  0  0  0
   -1.3769    5.5085  -20.8049 C   0  0  0  0  0  0  0  0  0  0  0  0
   -2.2978    3.5741  -19.8132 C   0  0  0  0  0  0  0  0  0  0  0  0
   -1.5534    4.7312  -19.6851 C   0  0  0  0  0  0  0  0  0  0  0  0
   -1.0049    5.1009  -18.4820 O   0  0  0  0  0  0  0  0  0  0  0  0
   -4.4848    0.6879  -25.4265 N   0  0  0  0  0  0  0  0  0  0  0  0
   -4.6587    0.4066  -26.8362 C   0  0  2  0  0  0  0  0  0  0  0  0
   -6.0190   -0.1903  -27.0891 C   0  0  0  0  0  0  0  0  0  0  0  0
   -6.5476   -0.8968  -26.2229 O   0  0  0  0  0  0  0  0  0  0  0  0
   -3.6228   -0.4283  -27.4690 C   0  0  0  0  0  0  0  0  0  0  0  0
   -6.7045    0.0578  -28.3097 N   0  0  0  0  0  0  0  0  0  0  0  0
   -7.0966   -0.9510  -29.2365 C   0  0  2  0  0  0  0  0  0  0  0  0
   -7.1717   -2.3348  -28.6716 C   0  0  0  0  0  0  0  0  0  0  0  0
   -6.6175   -2.5623  -27.5875 O   0  0  0  0  0  0  0  0  0  0  0  0
   -6.0569   -1.0030  -30.3605 C   0  0  1  0  0  0  0  0  0  0  0  0
   -5.6550    0.3902  -30.7983 C   0  0  0  0  0  0  0  0  0  0  0  0
   -4.8646   -1.8127  -29.9547 C   0  0  0  0  0  0  0  0  0  0  0  0
   -7.8456   -3.3628  -29.3409 N   0  0  0  0  0  0  0  0  0  0  0  0
   -8.7567   -4.3452  -28.7169 C   0  0  2  0  0  0  0  0  0  0  0  0
   -9.2068   -5.3106  -29.6781 C   0  0  0  0  0  0  0  0  0  0  0  0
  -10.3629   -5.0514  -30.2244 O   0  0  0  0  0  0  0  0  0  0  0  0
   -9.7342   -3.5280  -27.9452 C   0  0  1  0  0  0  0  0  0  0  0  0
  -10.9003   -4.4858  -27.5624 C   0  0  0  0  0  0  0  0  0  0  0  0
   -9.2283   -2.8839  -26.7079 C   0  0  0  0  0  0  0  0  0  0  0  0
   -8.5945   -6.4880  -30.1208 N   0  0  0  0  0  0  0  0  0  0  0  0
   -8.0170   -6.8235  -31.3645 C   0  0  2  0  0  0  0  0  0  0  0  0
   -8.9025   -7.2043  -32.4608 C   0  0  0  0  0  0  0  0  0  0  0  0
   -9.9723   -7.8571  -32.2093 O   0  0  0  0  0  0  0  0  0  0  0  0
   -7.0304   -7.9733  -31.1041 C   0  0  0  0  0  0  0  0  0  0  0  0
   -7.6922   -8.7031  -29.9800 C   0  0  0  0  0  0  0  0  0  0  0  0
   -8.5046   -7.6824  -29.2474 C   0  0  0  0  0  0  0  0  0  0  0  0
   -8.7007   -6.9180  -33.8577 N   0  0  0  0  0  0  0  0  0  0  0  0
   -9.2121   -5.6755  -34.4246 C   0  0  2  0  0  0  0  0  0  0  0  0
   -8.8544   -5.6495  -35.8630 C   0  0  0  0  0  0  0  0  0  0  0  0
   -8.1930   -6.6002  -36.3403 O   0  0  0  0  0  0  0  0  0  0  0  0
   -8.8271   -4.4504  -33.6716 C   0  0  0  0  0  0  0  0  0  0  0  0
   -9.3596   -3.2209  -34.3097 C   0  0  0  0  0  0  0  0  0  0  0  0
  -10.0474   -3.3151  -35.5023 O   0  0  0  0  0  0  0  0  0  0  0  0
   -9.2112   -2.0751  -33.8059 O   0  0  0  0  0  0  0  0  0  0  0  0
   -9.2125   -4.6242  -36.7269 O   0  0  0  0  0  0  0  0  0  0  0  0
   -3.9652    2.0703  -27.7183 H   0  0  0  0  0  0  0  0  0  0  0  0
  2  1  1  1
  2  3  1  0
  2  5  1  0
  3  4  2  0
  3 12  1  0
  5  6  1  0
  6  7  1  0
  7  8  1  0
  8  9  1  0
  9 10  2  0
  9 11  1  0
 12 13  1  0
 13 14  1  0
 13 16  1  6
 14 15  2  0
 14 24  1  0
 16 17  1  0
 17 18  2  0
 17 19  1  0
 18 20  1  0
 19 21  2  0
 20 22  2  0
 21 22  1  0
 22 23  1  0
 24 25  1  0
 25 26  1  0
 25 28  1  1
 26 27  2  0
 26 29  1  0
 30 29  1  1
 30 31  1  0
 30 33  1  0
 31 32  2  0
 31 36  1  0
 33 34  1  1
 33 35  1  0
 37 36  1  6
 37 38  1  0
 37 40  1  0
 38 39  2  0
 38 43  1  0
 40 41  1  1
 40 42  1  0
 43 44  1  0
 43 49  1  0
 44 45  1  6
 44 47  1  0
 45 46  2  0
 45 50  1  0
 47 48  1  0
 48 49  1  0
 50 51  1  0
 51 52  1  0
 51 54  1  1
 52 53  2  0
 52 58  1  0
 54 55  1  0
 55 56  1  0
 55 57  2  0
 10 59  1  0
M  CHG  1   1   1
M  END
$$$$
