
     RDKit          3D

 59 60  0  0  0  0  0  0  0  0999 V2000
   -0.8474    0.3063  -24.8215 N   0  0  0  0  0  4  0  0  0  0  0  0
   -1.3247    0.7599  -23.5307 C   0  0  2  0  0  0  0  0  0  0  0  0
   -2.5865    1.5507  -23.8328 C   0  0  0  0  0  0  0  0  0  0  0  0
   -2.5437    2.7709  -23.5754 O   0  0  0  0  0  0  0  0  0  0  0  0
   -0.3842    1.7577  -22.8960 C   0  0  0  0  0  0  0  0  0  0  0  0
   -0.5470    1.9224  -21.4291 C   0  0  0  0  0  0  0  0  0  0  0  0
   -1.6783    2.8064  -20.9891 C   0  0  0  0  0  0  0  0  0  0  0  0
   -2.1894    2.5008  -19.6813 N   0  0  0  0  0  0  0  0  0  0  0  0
   -3.1160    1.4199  -19.4406 C   0  0  0  0  0  0  0  0  0  0  0  0
   -3.5622    1.2336  -18.2563 N   0  0  0  0  0  0  0  0  0  0  0  0
   -3.5104    0.5697  -20.5302 N   0  0  0  0  0  0  0  0  0  0  0  0
   -3.7415    0.9746  -24.3717 N   0  0  0  0  0  0  0  0  0  0  0  0
   -4.7407    1.6777  -25.1132 C   0  0  2  0  0  0  0  0  0  0  0  0
   -5.7440    0.8713  -25.8019 C   0  0  0  0  0  0  0  0  0  0  0  0
   -5.8790    1.0372  -27.0737 O   0  0  0  0  0  0  0  0  0  0  0  0
   -4.1244    2.7395  -26.0050 C   0  0  0  0  0  0  0  0  0  0  0  0
   -4.3078    4.0926  -25.3992 C   0  0  0  0  0  0  0  0  0  0  0  0
   -4.2926    4.2302  -24.0080 C   0  0  0  0  0  0  0  0  0  0  0  0
   -4.5018    5.2318  -26.1388 C   0  0  0  0  0  0  0  0  0  0  0  0
   -4.4616    5.4387  -23.3899 C   0  0  0  0  0  0  0  0  0  0  0  0
   -4.6711    6.4366  -25.5191 C   0  0  0  0  0  0  0  0  0  0  0  0
   -4.6555    6.5713  -24.1439 C   0  0  0  0  0  0  0  0  0  0  0  0
   -4.8262    7.7933  -23.5418 O   0  0  0  0  0  0  0  0  0  0  0  0
   -6.6188   -0.0968  -25.2407 N   0  0  0  0  0  0  0  0  0  0  0  0
   -7.6053   -0.7489  -26.0763 C   0  0  2  0  0  0  0  0  0  0  0  0
   -6.9324   -1.4918  -27.2014 C   0  0  0  0  0  0  0  0  0  0  0  0
   -6.4109   -0.8589  -28.1267 O   0  0  0  0  0  0  0  0  0  0  0  0
   -8.6754    0.1084  -26.6151 C   0  0  0  0  0  0  0  0  0  0  0  0
   -6.8832   -2.9127  -27.2053 N   0  0  0  0  0  0  0  0  0  0  0  0
   -6.5692   -3.7079  -28.3452 C   0  0  2  0  0  0  0  0  0  0  0  0
   -7.6583   -4.6322  -28.7916 C   0  0  0  0  0  0  0  0  0  0  0  0
   -8.0184   -5.5362  -28.0253 O   0  0  0  0  0  0  0  0  0  0  0  0
   -5.3698   -4.5955  -27.9979 C   0  0  1  0  0  0  0  0  0  0  0  0
   -5.1433   -5.6494  -29.0619 C   0  0  0  0  0  0  0  0  0  0  0  0
   -4.1385   -3.7738  -27.7729 C   0  0  0  0  0  0  0  0  0  0  0  0
   -8.2658   -4.4959  -30.0451 N   0  0  0  0  0  0  0  0  0  0  0  0
   -9.3993   -5.3015  -30.5458 C   0  0  2  0  0  0  0  0  0  0  0  0
   -8.9335   -6.4732  -31.2305 C   0  0  0  0  0  0  0  0  0  0  0  0
   -7.9174   -6.2827  -32.0263 O   0  0  0  0  0  0  0  0  0  0  0  0
  -10.2928   -4.3257  -31.2303 C   0  0  1  0  0  0  0  0  0  0  0  0
  -11.4459   -5.1577  -31.8642 C   0  0  0  0  0  0  0  0  0  0  0  0
  -10.8890   -3.2650  -30.3811 C   0  0  0  0  0  0  0  0  0  0  0  0
   -9.4017   -7.7903  -31.1743 N   0  0  0  0  0  0  0  0  0  0  0  0
   -9.0431   -8.9358  -31.9172 C   0  0  2  0  0  0  0  0  0  0  0  0
   -9.5958   -9.0939  -33.2592 C   0  0  0  0  0  0  0  0  0  0  0  0
  -10.8330   -9.3816  -33.4015 O   0  0  0  0  0  0  0  0  0  0  0  0
   -9.4382  -10.1583  -31.0731 C   0  0  0  0  0  0  0  0  0  0  0  0
  -10.6529   -9.6628  -30.3566 C   0  0  0  0  0  0  0  0  0  0  0  0
  -10.4902   -8.1797  -30.2463 C   0  0  0  0  0  0  0  0  0  0  0  0
   -8.8752   -8.9585  -34.4986 N   0  0  0  0  0  0  0  0  0  0  0  0
   -9.5782   -9.1124  -35.7669 C   0  0  2  0  0  0  0  0  0  0  0  0
   -9.5015  -10.5396  -36.1605 C   0  0  0  0  0  0  0  0  0  0  0  0
   -8.3753  -11.0683  -36.3062 O   0  0  0  0  0  0  0  0  0  0  0  0
   -9.1533   -8.1571  -36.8267 C   0  0  0  0  0  0  0  0  0  0  0  0
   -9.2962   -6.7469  -36.3872 C   0  0  0  0  0  0  0  0  0  0  0  0
   -8.9875   -5.7257  -37.2623 O   0  0  0  0  0  0  0  0  0  0  0  0
   -9.6929   -6.4319  -35.2330 O   0  0  0  0  0  0  0  0  0  0  0  0
  -10.6147  -11.3386  -36.3795 O   0  0  0  0  0  0  0  0  0  0  0  0
   -3.0486    1.1590  -17.3787 H   0  0  0  0  0  0  0  0  0  0  0  0
  2  1  1  6
  2  3  1  0
  2  5  1  0
  3  4  2  0
  3 12  1  0
  5  6  1  0
  6  7  1  0
  7  8  1  0
  8  9  1  0
  9 10  2  0
  9 11  1  0
 12 13  1  0
 13 14  1  0
 13 16  1  6
 14 15  2  0
 14 24  1  0
 16 17  1  0
 17 18  2  0
 17 19  1  0
 18 20  1  0
 19 21  2  0
 20 22  2  0
 21 22  1  0
 22 23  1  0
 24 25  1  0
 25 26  1  0
 25 28  1  6
 26 27  2  0
 26 29  1  0
 30 29  1  1
 30 31  1  0
 30 33  1  0
 31 32  2  0
 31 36  1  0
 33 34  1  6
 33 35  1  0
 37 36  1  6
 37 38  1  0
 37 40  1  0
 38 39  2  0
 38 43  1  0
 40 41  1  1
 40 42  1  0
 43 44  1  0
 43 49  1  0
 44 45  1  6
 44 47  1  0
 45 46  2  0
 45 50  1  0
 47 48  1  0
 48 49  1  0
 50 51  1  0
 51 52  1  0
 51 54  1  6
 52 53  2  0
 52 58  1  0
 54 55  1  0
 55 56  1  0
 55 57  2  0
 10 59  1  0
M  CHG  1   1   1
M  END
$$$$
