
     RDKit          3D

 59 60  0  0  0  0  0  0  0  0999 V2000
   -7.8440   -6.9130  -34.6438 N   0  0  0  0  0  4  0  0  0  0  0  0
   -8.1512   -5.5833  -34.1569 C   0  0  2  0  0  0  0  0  0  0  0  0
   -9.2702   -5.7817  -33.1483 C   0  0  0  0  0  0  0  0  0  0  0  0
  -10.3833   -5.3157  -33.4655 O   0  0  0  0  0  0  0  0  0  0  0  0
   -8.7501   -4.7085  -35.2336 C   0  0  0  0  0  0  0  0  0  0  0  0
   -9.0350   -3.3123  -34.8158 C   0  0  0  0  0  0  0  0  0  0  0  0
   -8.3813   -2.2357  -35.6336 C   0  0  0  0  0  0  0  0  0  0  0  0
   -8.8843   -0.9144  -35.3766 N   0  0  0  0  0  0  0  0  0  0  0  0
   -9.0927   -0.4068  -34.0410 C   0  0  0  0  0  0  0  0  0  0  0  0
   -8.2815    0.4636  -33.5714 N   0  0  0  0  0  0  0  0  0  0  0  0
  -10.1977   -0.8952  -33.2625 N   0  0  0  0  0  0  0  0  0  0  0  0
   -9.0951   -6.4466  -31.9303 N   0  0  0  0  0  0  0  0  0  0  0  0
   -9.2366   -5.8481  -30.6402 C   0  0  2  0  0  0  0  0  0  0  0  0
   -8.8283   -4.4526  -30.5094 C   0  0  0  0  0  0  0  0  0  0  0  0
   -7.7288   -4.0922  -31.0790 O   0  0  0  0  0  0  0  0  0  0  0  0
   -8.6614   -6.7351  -29.5517 C   0  0  0  0  0  0  0  0  0  0  0  0
   -9.1805   -8.1287  -29.6933 C   0  0  0  0  0  0  0  0  0  0  0  0
   -8.4268   -9.0746  -30.3945 C   0  0  0  0  0  0  0  0  0  0  0  0
  -10.3800   -8.5448  -29.1732 C   0  0  0  0  0  0  0  0  0  0  0  0
   -8.8478  -10.3646  -30.5665 C   0  0  0  0  0  0  0  0  0  0  0  0
  -10.7981   -9.8328  -29.3472 C   0  0  0  0  0  0  0  0  0  0  0  0
  -10.0520  -10.7670  -30.0402 C   0  0  0  0  0  0  0  0  0  0  0  0
  -10.4912  -12.0578  -30.2018 O   0  0  0  0  0  0  0  0  0  0  0  0
   -9.4981   -3.4102  -29.8150 N   0  0  0  0  0  0  0  0  0  0  0  0
   -8.8818   -2.1047  -29.7037 C   0  0  2  0  0  0  0  0  0  0  0  0
   -7.6625   -2.1727  -28.8209 C   0  0  0  0  0  0  0  0  0  0  0  0
   -7.7325   -2.7386  -27.7238 O   0  0  0  0  0  0  0  0  0  0  0  0
   -9.7561   -1.0043  -29.2620 C   0  0  0  0  0  0  0  0  0  0  0  0
   -6.4304   -1.6006  -29.2404 N   0  0  0  0  0  0  0  0  0  0  0  0
   -5.3727   -1.2252  -28.3625 C   0  0  2  0  0  0  0  0  0  0  0  0
   -5.7499   -0.2382  -27.3027 C   0  0  0  0  0  0  0  0  0  0  0  0
   -6.0778    0.9051  -27.6485 O   0  0  0  0  0  0  0  0  0  0  0  0
   -4.2698   -0.5612  -29.1932 C   0  0  1  0  0  0  0  0  0  0  0  0
   -3.0548   -0.2539  -28.3426 C   0  0  0  0  0  0  0  0  0  0  0  0
   -3.9080   -1.4015  -30.3784 C   0  0  0  0  0  0  0  0  0  0  0  0
   -5.7350   -0.5801  -25.9456 N   0  0  0  0  0  0  0  0  0  0  0  0
   -5.3461    0.3149  -24.8355 C   0  0  2  0  0  0  0  0  0  0  0  0
   -4.0948    0.9605  -25.1109 C   0  0  0  0  0  0  0  0  0  0  0  0
   -3.2135    0.2213  -25.7266 O   0  0  0  0  0  0  0  0  0  0  0  0
   -5.5254   -0.5010  -23.6021 C   0  0  1  0  0  0  0  0  0  0  0  0
   -5.0905    0.4033  -22.4117 C   0  0  0  0  0  0  0  0  0  0  0  0
   -6.8951   -1.0052  -23.3348 C   0  0  0  0  0  0  0  0  0  0  0  0
   -3.6750    2.2632  -24.8213 N   0  0  0  0  0  0  0  0  0  0  0  0
   -2.4905    2.9536  -25.1576 C   0  0  2  0  0  0  0  0  0  0  0  0
   -1.2878    2.6920  -24.3723 C   0  0  0  0  0  0  0  0  0  0  0  0
   -1.3903    2.4680  -23.1181 O   0  0  0  0  0  0  0  0  0  0  0  0
   -2.8115    4.4551  -25.0842 C   0  0  0  0  0  0  0  0  0  0  0  0
   -3.8244    4.5038  -23.9860 C   0  0  0  0  0  0  0  0  0  0  0  0
   -4.5033    3.1707  -23.9919 C   0  0  0  0  0  0  0  0  0  0  0  0
    0.0632    2.6568  -24.8695 N   0  0  0  0  0  0  0  0  0  0  0  0
    1.1243    2.0876  -24.0467 C   0  0  2  0  0  0  0  0  0  0  0  0
    1.4674    3.0767  -22.9970 C   0  0  0  0  0  0  0  0  0  0  0  0
    1.7165    2.6695  -21.8389 O   0  0  0  0  0  0  0  0  0  0  0  0
    2.2915    1.5744  -24.8150 C   0  0  0  0  0  0  0  0  0  0  0  0
    3.3552    1.0548  -23.9201 C   0  0  0  0  0  0  0  0  0  0  0  0
    4.5308    0.5787  -24.4636 O   0  0  0  0  0  0  0  0  0  0  0  0
    3.2341    1.0270  -22.6658 O   0  0  0  0  0  0  0  0  0  0  0  0
    1.5324    4.4448  -23.2202 O   0  0  0  0  0  0  0  0  0  0  0  0
   -7.9039    0.5497  -32.6283 H   0  0  0  0  0  0  0  0  0  0  0  0
  2  1  1  6
  2  3  1  0
  2  5  1  0
  3  4  2  0
  3 12  1  0
  5  6  1  0
  6  7  1  0
  7  8  1  0
  8  9  1  0
  9 10  2  0
  9 11  1  0
 12 13  1  0
 13 14  1  0
 13 16  1  1
 14 15  2  0
 14 24  1  0
 16 17  1  0
 17 18  2  0
 17 19  1  0
 18 20  1  0
 19 21  2  0
 20 22  2  0
 21 22  1  0
 22 23  1  0
 24 25  1  0
 25 26  1  0
 25 28  1  1
 26 27  2  0
 26 29  1  0
 30 29  1  6
 30 31  1  0
 30 33  1  0
 31 32  2  0
 31 36  1  0
 33 34  1  1
 33 35  1  0
 37 36  1  6
 37 38  1  0
 37 40  1  0
 38 39  2  0
 38 43  1  0
 40 41  1  1
 40 42  1  0
 43 44  1  0
 43 49  1  0
 44 45  1  1
 44 47  1  0
 45 46  2  0
 45 50  1  0
 47 48  1  0
 48 49  1  0
 50 51  1  0
 51 52  1  0
 51 54  1  6
 52 53  2  0
 52 58  1  0
 54 55  1  0
 55 56  1  0
 55 57  2  0
 10 59  1  0
M  CHG  1   1   1
M  END
$$$$
