
     RDKit          3D

 59 60  0  0  0  0  0  0  0  0999 V2000
    2.8890   -2.0032  -35.9388 N   0  0  0  0  0  4  0  0  0  0  0  0
    1.4807   -2.0806  -35.6063 C   0  0  2  0  0  0  0  0  0  0  0  0
    1.3089   -1.1676  -34.4040 C   0  0  0  0  0  0  0  0  0  0  0  0
    2.2256   -1.1967  -33.5579 O   0  0  0  0  0  0  0  0  0  0  0  0
    1.0890   -3.4531  -35.1102 C   0  0  0  0  0  0  0  0  0  0  0  0
    0.5500   -4.3627  -36.1530 C   0  0  0  0  0  0  0  0  0  0  0  0
    0.0688   -5.7013  -35.6718 C   0  0  0  0  0  0  0  0  0  0  0  0
   -0.7303   -5.6452  -34.4788 N   0  0  0  0  0  0  0  0  0  0  0  0
   -2.1736   -5.6159  -34.5092 C   0  0  0  0  0  0  0  0  0  0  0  0
   -2.7713   -4.4947  -34.6571 N   0  0  0  0  0  0  0  0  0  0  0  0
   -2.9097   -6.8416  -34.3625 N   0  0  0  0  0  0  0  0  0  0  0  0
    0.2027   -0.3296  -34.2300 N   0  0  0  0  0  0  0  0  0  0  0  0
   -0.0324    0.4929  -33.0850 C   0  0  2  0  0  0  0  0  0  0  0  0
   -0.4495   -0.1818  -31.8595 C   0  0  0  0  0  0  0  0  0  0  0  0
    0.1509   -1.2784  -31.5429 O   0  0  0  0  0  0  0  0  0  0  0  0
   -0.9069    1.6844  -33.4288 C   0  0  0  0  0  0  0  0  0  0  0  0
   -0.2064    2.5753  -34.4021 C   0  0  0  0  0  0  0  0  0  0  0  0
    0.6199    2.0108  -35.3783 C   0  0  0  0  0  0  0  0  0  0  0  0
   -0.3202    3.9425  -34.3924 C   0  0  0  0  0  0  0  0  0  0  0  0
    1.2950    2.7699  -36.2944 C   0  0  0  0  0  0  0  0  0  0  0  0
    0.3556    4.6978  -35.3074 C   0  0  0  0  0  0  0  0  0  0  0  0
    1.1717    4.1386  -36.2722 C   0  0  0  0  0  0  0  0  0  0  0  0
    1.8408    4.9174  -37.1838 O   0  0  0  0  0  0  0  0  0  0  0  0
   -1.4601    0.2185  -30.9452 N   0  0  0  0  0  0  0  0  0  0  0  0
   -1.7333   -0.5868  -29.7732 C   0  0  2  0  0  0  0  0  0  0  0  0
   -2.8689    0.0071  -28.9806 C   0  0  0  0  0  0  0  0  0  0  0  0
   -2.6274    0.6442  -27.9489 O   0  0  0  0  0  0  0  0  0  0  0  0
   -0.5905   -0.8541  -28.8827 C   0  0  0  0  0  0  0  0  0  0  0  0
   -4.2146   -0.1500  -29.4119 N   0  0  0  0  0  0  0  0  0  0  0  0
   -5.3504   -0.0970  -28.5531 C   0  0  2  0  0  0  0  0  0  0  0  0
   -5.1945   -0.8200  -27.2521 C   0  0  0  0  0  0  0  0  0  0  0  0
   -4.5341   -1.8676  -27.2327 O   0  0  0  0  0  0  0  0  0  0  0  0
   -6.5297   -0.7594  -29.2726 C   0  0  1  0  0  0  0  0  0  0  0  0
   -7.7902   -0.6886  -28.4358 C   0  0  0  0  0  0  0  0  0  0  0  0
   -6.7400   -0.1592  -30.6281 C   0  0  0  0  0  0  0  0  0  0  0  0
   -5.7779   -0.3402  -26.0738 N   0  0  0  0  0  0  0  0  0  0  0  0
   -5.5470   -0.8781  -24.7166 C   0  0  2  0  0  0  0  0  0  0  0  0
   -6.6934   -1.6040  -24.2503 C   0  0  0  0  0  0  0  0  0  0  0  0
   -6.5343   -2.2183  -23.1103 O   0  0  0  0  0  0  0  0  0  0  0  0
   -5.0034    0.2679  -23.9354 C   0  0  1  0  0  0  0  0  0  0  0  0
   -5.1411   -0.1209  -22.4342 C   0  0  0  0  0  0  0  0  0  0  0  0
   -3.5908    0.6380  -24.1985 C   0  0  0  0  0  0  0  0  0  0  0  0
   -7.9575   -1.7530  -24.8308 N   0  0  0  0  0  0  0  0  0  0  0  0
   -9.0847   -0.9032  -24.8325 C   0  0  2  0  0  0  0  0  0  0  0  0
   -9.9401   -0.8825  -23.6496 C   0  0  0  0  0  0  0  0  0  0  0  0
  -11.1935   -0.6696  -23.7818 O   0  0  0  0  0  0  0  0  0  0  0  0
   -9.9367   -1.2923  -26.0514 C   0  0  0  0  0  0  0  0  0  0  0  0
   -9.6821   -2.7617  -26.1532 C   0  0  0  0  0  0  0  0  0  0  0  0
   -8.3242   -2.9865  -25.5667 C   0  0  0  0  0  0  0  0  0  0  0  0
   -9.5158   -1.0818  -22.2879 N   0  0  0  0  0  0  0  0  0  0  0  0
  -10.5103   -1.1879  -21.2265 C   0  0  2  0  0  0  0  0  0  0  0  0
  -11.8197   -0.7751  -21.7857 C   0  0  0  0  0  0  0  0  0  0  0  0
  -11.9036    0.3203  -22.3872 O   0  0  0  0  0  0  0  0  0  0  0  0
  -10.1361   -0.4994  -19.9607 C   0  0  0  0  0  0  0  0  0  0  0  0
   -9.2108   -1.3194  -19.1399 C   0  0  0  0  0  0  0  0  0  0  0  0
   -8.6568   -0.7826  -17.9958 O   0  0  0  0  0  0  0  0  0  0  0  0
   -8.9014   -2.5031  -19.4430 O   0  0  0  0  0  0  0  0  0  0  0  0
  -12.9747   -1.5377  -21.6846 O   0  0  0  0  0  0  0  0  0  0  0  0
   -2.7453   -3.6674  -34.0620 H   0  0  0  0  0  0  0  0  0  0  0  0
  2  1  1  1
  2  3  1  0
  2  5  1  0
  3  4  2  0
  3 12  1  0
  5  6  1  0
  6  7  1  0
  7  8  1  0
  8  9  1  0
  9 10  2  0
  9 11  1  0
 12 13  1  0
 13 14  1  0
 13 16  1  6
 14 15  2  0
 14 24  1  0
 16 17  1  0
 17 18  2  0
 17 19  1  0
 18 20  1  0
 19 21  2  0
 20 22  2  0
 21 22  1  0
 22 23  1  0
 24 25  1  0
 25 26  1  0
 25 28  1  1
 26 27  2  0
 26 29  1  0
 30 29  1  6
 30 31  1  0
 30 33  1  0
 31 32  2  0
 31 36  1  0
 33 34  1  1
 33 35  1  0
 37 36  1  6
 37 38  1  0
 37 40  1  0
 38 39  2  0
 38 43  1  0
 40 41  1  1
 40 42  1  0
 43 44  1  0
 43 49  1  0
 44 45  1  1
 44 47  1  0
 45 46  2  0
 45 50  1  0
 47 48  1  0
 48 49  1  0
 50 51  1  0
 51 52  1  0
 51 54  1  1
 52 53  2  0
 52 58  1  0
 54 55  1  0
 55 56  1  0
 55 57  2  0
 10 59  1  0
M  CHG  1   1   1
M  END
$$$$
