
     RDKit          3D

 59 60  0  0  0  0  0  0  0  0999 V2000
    1.1790    5.3706  -23.7474 N   0  0  0  0  0  4  0  0  0  0  0  0
    0.7107    4.0014  -23.6720 C   0  0  2  0  0  0  0  0  0  0  0  0
   -0.6614    4.0178  -24.3248 C   0  0  0  0  0  0  0  0  0  0  0  0
   -0.9326    5.0275  -25.0058 O   0  0  0  0  0  0  0  0  0  0  0  0
    0.4573    3.5655  -22.2476 C   0  0  0  0  0  0  0  0  0  0  0  0
   -0.9723    3.5452  -21.8466 C   0  0  0  0  0  0  0  0  0  0  0  0
   -1.2496    3.1554  -20.4231 C   0  0  0  0  0  0  0  0  0  0  0  0
   -2.6407    3.1885  -20.0644 N   0  0  0  0  0  0  0  0  0  0  0  0
   -3.6809    3.5189  -21.0099 C   0  0  0  0  0  0  0  0  0  0  0  0
   -3.4673    3.3418  -22.2586 N   0  0  0  0  0  0  0  0  0  0  0  0
   -4.9287    4.0488  -20.5328 N   0  0  0  0  0  0  0  0  0  0  0  0
   -1.5855    2.9764  -24.1923 N   0  0  0  0  0  0  0  0  0  0  0  0
   -2.4475    2.5063  -25.2310 C   0  0  2  0  0  0  0  0  0  0  0  0
   -3.4482    1.5100  -24.8606 C   0  0  0  0  0  0  0  0  0  0  0  0
   -3.4324    1.0632  -23.6509 O   0  0  0  0  0  0  0  0  0  0  0  0
   -1.6621    2.1203  -26.4706 C   0  0  0  0  0  0  0  0  0  0  0  0
   -0.9738    3.3178  -27.0394 C   0  0  0  0  0  0  0  0  0  0  0  0
   -1.1189    4.5574  -26.4094 C   0  0  0  0  0  0  0  0  0  0  0  0
   -0.1977    3.2773  -28.1701 C   0  0  0  0  0  0  0  0  0  0  0  0
   -0.5216    5.6935  -26.8823 C   0  0  0  0  0  0  0  0  0  0  0  0
    0.3966    4.4131  -28.6404 C   0  0  0  0  0  0  0  0  0  0  0  0
    0.2527    5.6377  -28.0165 C   0  0  0  0  0  0  0  0  0  0  0  0
    0.8608    6.7671  -28.5061 O   0  0  0  0  0  0  0  0  0  0  0  0
   -4.4635    0.9485  -25.6799 N   0  0  0  0  0  0  0  0  0  0  0  0
   -5.2678   -0.1483  -25.1830 C   0  0  2  0  0  0  0  0  0  0  0  0
   -6.3137   -0.5344  -26.1967 C   0  0  0  0  0  0  0  0  0  0  0  0
   -7.3817    0.0870  -26.2406 O   0  0  0  0  0  0  0  0  0  0  0  0
   -5.8986    0.0477  -23.8661 C   0  0  0  0  0  0  0  0  0  0  0  0
   -6.0813   -1.5998  -27.1089 N   0  0  0  0  0  0  0  0  0  0  0  0
   -6.8866   -1.8763  -28.2514 C   0  0  2  0  0  0  0  0  0  0  0  0
   -7.6252   -3.1771  -28.2054 C   0  0  0  0  0  0  0  0  0  0  0  0
   -7.9375   -3.6415  -27.1004 O   0  0  0  0  0  0  0  0  0  0  0  0
   -5.9732   -1.9458  -29.4794 C   0  0  1  0  0  0  0  0  0  0  0  0
   -6.7699   -2.2164  -30.7388 C   0  0  0  0  0  0  0  0  0  0  0  0
   -5.1510   -0.7013  -29.6105 C   0  0  0  0  0  0  0  0  0  0  0  0
   -7.9611   -3.8698  -29.3743 N   0  0  0  0  0  0  0  0  0  0  0  0
   -8.7212   -5.1358  -29.4377 C   0  0  2  0  0  0  0  0  0  0  0  0
   -8.6417   -5.7172  -30.7470 C   0  0  0  0  0  0  0  0  0  0  0  0
   -8.6094   -4.8622  -31.7320 O   0  0  0  0  0  0  0  0  0  0  0  0
  -10.0418   -4.8234  -28.8235 C   0  0  1  0  0  0  0  0  0  0  0  0
  -10.7154   -3.7666  -29.7471 C   0  0  0  0  0  0  0  0  0  0  0  0
  -10.9774   -5.9619  -28.6499 C   0  0  0  0  0  0  0  0  0  0  0  0
   -8.5920   -7.0619  -31.1295 N   0  0  0  0  0  0  0  0  0  0  0  0
   -8.1600   -7.6714  -32.3273 C   0  0  2  0  0  0  0  0  0  0  0  0
   -9.0655   -7.6703  -33.4725 C   0  0  0  0  0  0  0  0  0  0  0  0
   -9.8492   -8.6630  -33.6573 O   0  0  0  0  0  0  0  0  0  0  0  0
   -7.7990   -9.1258  -31.9844 C   0  0  0  0  0  0  0  0  0  0  0  0
   -8.7718   -9.4395  -30.8938 C   0  0  0  0  0  0  0  0  0  0  0  0
   -9.0847   -8.1344  -30.2325 C   0  0  0  0  0  0  0  0  0  0  0  0
   -9.1826   -6.6333  -34.4648 N   0  0  0  0  0  0  0  0  0  0  0  0
   -8.8478   -6.9187  -35.8552 C   0  0  2  0  0  0  0  0  0  0  0  0
   -9.7902   -6.1637  -36.7153 C   0  0  0  0  0  0  0  0  0  0  0  0
  -10.5430   -5.3127  -36.1879 O   0  0  0  0  0  0  0  0  0  0  0  0
   -8.7441   -8.3681  -36.1789 C   0  0  0  0  0  0  0  0  0  0  0  0
   -8.4457   -8.5922  -37.6152 C   0  0  0  0  0  0  0  0  0  0  0  0
   -8.5712   -9.8589  -38.1478 O   0  0  0  0  0  0  0  0  0  0  0  0
   -8.0767   -7.6649  -38.3851 O   0  0  0  0  0  0  0  0  0  0  0  0
   -9.8912   -6.3418  -38.0877 O   0  0  0  0  0  0  0  0  0  0  0  0
   -3.9576    3.7401  -23.0589 H   0  0  0  0  0  0  0  0  0  0  0  0
  2  1  1  1
  2  3  1  0
  2  5  1  0
  3  4  2  0
  3 12  1  0
  5  6  1  0
  6  7  1  0
  7  8  1  0
  8  9  1  0
  9 10  2  0
  9 11  1  0
 12 13  1  0
 13 14  1  0
 13 16  1  6
 14 15  2  0
 14 24  1  0
 16 17  1  0
 17 18  2  0
 17 19  1  0
 18 20  1  0
 19 21  2  0
 20 22  2  0
 21 22  1  0
 22 23  1  0
 24 25  1  0
 25 26  1  0
 25 28  1  1
 26 27  2  0
 26 29  1  0
 30 29  1  1
 30 31  1  0
 30 33  1  0
 31 32  2  0
 31 36  1  0
 33 34  1  6
 33 35  1  0
 37 36  1  6
 37 38  1  0
 37 40  1  0
 38 39  2  0
 38 43  1  0
 40 41  1  6
 40 42  1  0
 43 44  1  0
 43 49  1  0
 44 45  1  6
 44 47  1  0
 45 46  2  0
 45 50  1  0
 47 48  1  0
 48 49  1  0
 50 51  1  0
 51 52  1  0
 51 54  1  1
 52 53  2  0
 52 58  1  0
 54 55  1  0
 55 56  1  0
 55 57  2  0
 10 59  1  0
M  CHG  1   1   1
M  END
$$$$
