
     RDKit          3D

 59 60  0  0  0  0  0  0  0  0999 V2000
   -0.6829    0.6151  -26.6227 N   0  0  0  0  0  4  0  0  0  0  0  0
   -0.7675    1.5459  -25.5155 C   0  0  2  0  0  0  0  0  0  0  0  0
   -2.2232    1.5106  -25.0812 C   0  0  0  0  0  0  0  0  0  0  0  0
   -3.0380    2.0613  -25.8491 O   0  0  0  0  0  0  0  0  0  0  0  0
   -0.5277    2.9722  -25.9530 C   0  0  0  0  0  0  0  0  0  0  0  0
   -0.0084    3.8713  -24.8913 C   0  0  0  0  0  0  0  0  0  0  0  0
    0.3256    5.2707  -25.3213 C   0  0  0  0  0  0  0  0  0  0  0  0
    1.3809    5.3515  -26.2933 N   0  0  0  0  0  0  0  0  0  0  0  0
    2.5399    6.1942  -26.1160 C   0  0  0  0  0  0  0  0  0  0  0  0
    2.6606    6.8689  -25.0359 N   0  0  0  0  0  0  0  0  0  0  0  0
    3.5279    6.2673  -27.1572 N   0  0  0  0  0  0  0  0  0  0  0  0
   -2.6556    0.9009  -23.8991 N   0  0  0  0  0  0  0  0  0  0  0  0
   -4.0180    0.7960  -23.4800 C   0  0  2  0  0  0  0  0  0  0  0  0
   -4.8608   -0.1540  -24.2002 C   0  0  0  0  0  0  0  0  0  0  0  0
   -5.1737    0.1246  -25.4199 O   0  0  0  0  0  0  0  0  0  0  0  0
   -4.6606    2.1631  -23.3365 C   0  0  0  0  0  0  0  0  0  0  0  0
   -4.0760    2.8882  -22.1685 C   0  0  0  0  0  0  0  0  0  0  0  0
   -3.0450    2.2925  -21.4360 C   0  0  0  0  0  0  0  0  0  0  0  0
   -4.5024    4.1256  -21.7568 C   0  0  0  0  0  0  0  0  0  0  0  0
   -2.4714    2.8992  -20.3525 C   0  0  0  0  0  0  0  0  0  0  0  0
   -3.9287    4.7284  -20.6744 C   0  0  0  0  0  0  0  0  0  0  0  0
   -2.9093    4.1387  -19.9514 C   0  0  0  0  0  0  0  0  0  0  0  0
   -2.3456    4.7639  -18.8668 O   0  0  0  0  0  0  0  0  0  0  0  0
   -5.4006   -1.3773  -23.7210 N   0  0  0  0  0  0  0  0  0  0  0  0
   -6.8351   -1.5378  -23.6071 C   0  0  2  0  0  0  0  0  0  0  0  0
   -7.4862   -1.4198  -24.9609 C   0  0  0  0  0  0  0  0  0  0  0  0
   -8.7040   -1.2202  -25.0386 O   0  0  0  0  0  0  0  0  0  0  0  0
   -7.5179   -0.6533  -22.6470 C   0  0  0  0  0  0  0  0  0  0  0  0
   -6.7133   -1.5266  -26.1494 N   0  0  0  0  0  0  0  0  0  0  0  0
   -7.2581   -1.6145  -27.4631 C   0  0  2  0  0  0  0  0  0  0  0  0
   -7.3716   -3.0031  -28.0096 C   0  0  0  0  0  0  0  0  0  0  0  0
   -6.4421   -3.4459  -28.6982 O   0  0  0  0  0  0  0  0  0  0  0  0
   -6.3354   -0.8521  -28.4194 C   0  0  1  0  0  0  0  0  0  0  0  0
   -6.8975   -0.8371  -29.8258 C   0  0  0  0  0  0  0  0  0  0  0  0
   -6.0719    0.5355  -27.9222 C   0  0  0  0  0  0  0  0  0  0  0  0
   -8.4971   -3.7974  -27.7618 N   0  0  0  0  0  0  0  0  0  0  0  0
   -8.8794   -5.0098  -28.5157 C   0  0  2  0  0  0  0  0  0  0  0  0
   -8.1991   -5.0653  -29.7777 C   0  0  0  0  0  0  0  0  0  0  0  0
   -8.2265   -3.9604  -30.4711 O   0  0  0  0  0  0  0  0  0  0  0  0
  -10.3671   -5.0502  -28.4515 C   0  0  1  0  0  0  0  0  0  0  0  0
  -10.8002   -6.3694  -29.1556 C   0  0  0  0  0  0  0  0  0  0  0  0
  -10.9727   -5.0183  -27.0972 C   0  0  0  0  0  0  0  0  0  0  0  0
   -7.5090   -6.1234  -30.3787 N   0  0  0  0  0  0  0  0  0  0  0  0
   -6.8480   -6.2136  -31.6227 C   0  0  2  0  0  0  0  0  0  0  0  0
   -7.6522   -6.4269  -32.8223 C   0  0  0  0  0  0  0  0  0  0  0  0
   -8.7449   -7.0851  -32.7398 O   0  0  0  0  0  0  0  0  0  0  0  0
   -5.8252   -7.3551  -31.5043 C   0  0  0  0  0  0  0  0  0  0  0  0
   -6.5141   -8.2948  -30.5681 C   0  0  0  0  0  0  0  0  0  0  0  0
   -7.4127   -7.4490  -29.7221 C   0  0  0  0  0  0  0  0  0  0  0  0
   -7.3426   -5.9615  -34.1494 N   0  0  0  0  0  0  0  0  0  0  0  0
   -8.4013   -5.8570  -35.1469 C   0  0  2  0  0  0  0  0  0  0  0  0
   -8.3082   -7.0396  -36.0361 C   0  0  0  0  0  0  0  0  0  0  0  0
   -9.0773   -8.0083  -35.8386 O   0  0  0  0  0  0  0  0  0  0  0  0
   -8.4485   -4.5514  -35.8607 C   0  0  0  0  0  0  0  0  0  0  0  0
   -9.8344   -4.1802  -36.2397 C   0  0  0  0  0  0  0  0  0  0  0  0
  -10.8762   -5.0315  -35.9328 O   0  0  0  0  0  0  0  0  0  0  0  0
  -10.1103   -3.1061  -36.8388 O   0  0  0  0  0  0  0  0  0  0  0  0
   -7.4107   -7.1417  -37.0896 O   0  0  0  0  0  0  0  0  0  0  0  0
    2.0191    6.9421  -24.2470 H   0  0  0  0  0  0  0  0  0  0  0  0
  2  1  1  6
  2  3  1  0
  2  5  1  0
  3  4  2  0
  3 12  1  0
  5  6  1  0
  6  7  1  0
  7  8  1  0
  8  9  1  0
  9 10  2  0
  9 11  1  0
 12 13  1  0
 13 14  1  0
 13 16  1  6
 14 15  2  0
 14 24  1  0
 16 17  1  0
 17 18  2  0
 17 19  1  0
 18 20  1  0
 19 21  2  0
 20 22  2  0
 21 22  1  0
 22 23  1  0
 24 25  1  0
 25 26  1  0
 25 28  1  1
 26 27  2  0
 26 29  1  0
 30 29  1  1
 30 31  1  0
 30 33  1  0
 31 32  2  0
 31 36  1  0
 33 34  1  6
 33 35  1  0
 37 36  1  6
 37 38  1  0
 37 40  1  0
 38 39  2  0
 38 43  1  0
 40 41  1  1
 40 42  1  0
 43 44  1  0
 43 49  1  0
 44 45  1  6
 44 47  1  0
 45 46  2  0
 45 50  1  0
 47 48  1  0
 48 49  1  0
 50 51  1  0
 51 52  1  0
 51 54  1  6
 52 53  2  0
 52 58  1  0
 54 55  1  0
 55 56  1  0
 55 57  2  0
 10 59  1  0
M  CHG  1   1   1
M  END
$$$$
