
     RDKit          3D

 59 60  0  0  0  0  0  0  0  0999 V2000
   -9.8611  -10.6033  -34.3136 N   0  0  0  0  0  4  0  0  0  0  0  0
   -9.3295   -9.2600  -34.4268 C   0  0  2  0  0  0  0  0  0  0  0  0
   -8.7974   -8.9288  -33.0425 C   0  0  0  0  0  0  0  0  0  0  0  0
   -8.4309   -9.8994  -32.3493 O   0  0  0  0  0  0  0  0  0  0  0  0
  -10.4147   -8.2393  -34.6796 C   0  0  0  0  0  0  0  0  0  0  0  0
  -11.6315   -8.4030  -33.8444 C   0  0  0  0  0  0  0  0  0  0  0  0
  -12.7126   -7.3816  -34.0516 C   0  0  0  0  0  0  0  0  0  0  0  0
  -14.0017   -7.7809  -33.5582 N   0  0  0  0  0  0  0  0  0  0  0  0
  -14.5162   -7.3441  -32.2817 C   0  0  0  0  0  0  0  0  0  0  0  0
  -15.5170   -7.9554  -31.7708 N   0  0  0  0  0  0  0  0  0  0  0  0
  -13.9032   -6.2275  -31.6160 N   0  0  0  0  0  0  0  0  0  0  0  0
   -8.7073   -7.6236  -32.5482 N   0  0  0  0  0  0  0  0  0  0  0  0
   -7.5016   -6.9919  -32.1124 C   0  0  2  0  0  0  0  0  0  0  0  0
   -7.6276   -5.6661  -31.5143 C   0  0  0  0  0  0  0  0  0  0  0  0
   -7.2891   -4.6488  -32.2309 O   0  0  0  0  0  0  0  0  0  0  0  0
   -6.4248   -7.0571  -33.1796 C   0  0  0  0  0  0  0  0  0  0  0  0
   -5.4663   -8.1627  -32.8789 C   0  0  0  0  0  0  0  0  0  0  0  0
   -4.3884   -7.9231  -32.0213 C   0  0  0  0  0  0  0  0  0  0  0  0
   -5.5761   -9.4232  -33.4093 C   0  0  0  0  0  0  0  0  0  0  0  0
   -3.4713   -8.8893  -31.7105 C   0  0  0  0  0  0  0  0  0  0  0  0
   -4.6587  -10.3854  -33.0981 C   0  0  0  0  0  0  0  0  0  0  0  0
   -3.5939  -10.1475  -32.2499 C   0  0  0  0  0  0  0  0  0  0  0  0
   -2.6838  -11.1305  -31.9493 O   0  0  0  0  0  0  0  0  0  0  0  0
   -8.0830   -5.3387  -30.2094 N   0  0  0  0  0  0  0  0  0  0  0  0
   -8.1547   -3.9527  -29.7965 C   0  0  2  0  0  0  0  0  0  0  0  0
   -7.0082   -3.6181  -28.8777 C   0  0  0  0  0  0  0  0  0  0  0  0
   -6.6595   -4.4308  -28.0137 O   0  0  0  0  0  0  0  0  0  0  0  0
   -9.4239   -3.5163  -29.1888 C   0  0  0  0  0  0  0  0  0  0  0  0
   -6.3178   -2.3813  -29.0001 N   0  0  0  0  0  0  0  0  0  0  0  0
   -5.2808   -1.9441  -28.1260 C   0  0  2  0  0  0  0  0  0  0  0  0
   -5.7249   -1.0391  -27.0199 C   0  0  0  0  0  0  0  0  0  0  0  0
   -6.1966    0.0677  -27.3142 O   0  0  0  0  0  0  0  0  0  0  0  0
   -4.2619   -1.1480  -28.9477 C   0  0  1  0  0  0  0  0  0  0  0  0
   -3.1543   -0.6058  -28.0682 C   0  0  0  0  0  0  0  0  0  0  0  0
   -3.7129   -1.9725  -30.0705 C   0  0  0  0  0  0  0  0  0  0  0  0
   -5.6142   -1.4164  -25.6767 N   0  0  0  0  0  0  0  0  0  0  0  0
   -5.4927   -0.4927  -24.5292 C   0  0  2  0  0  0  0  0  0  0  0  0
   -4.5147    0.5241  -24.7901 C   0  0  0  0  0  0  0  0  0  0  0  0
   -3.5282    0.1593  -25.5620 O   0  0  0  0  0  0  0  0  0  0  0  0
   -5.3718   -1.3755  -23.3354 C   0  0  1  0  0  0  0  0  0  0  0  0
   -5.2500   -0.4316  -22.1033 C   0  0  0  0  0  0  0  0  0  0  0  0
   -6.4894   -2.3215  -23.0953 C   0  0  0  0  0  0  0  0  0  0  0  0
   -4.4577    1.8489  -24.3441 N   0  0  0  0  0  0  0  0  0  0  0  0
   -3.5497    2.8892  -24.6374 C   0  0  2  0  0  0  0  0  0  0  0  0
   -2.2603    2.8988  -23.9527 C   0  0  0  0  0  0  0  0  0  0  0  0
   -2.1736    2.4331  -22.7655 O   0  0  0  0  0  0  0  0  0  0  0  0
   -4.2749    4.2123  -24.3433 C   0  0  0  0  0  0  0  0  0  0  0  0
   -5.1636    3.8336  -23.2027 C   0  0  0  0  0  0  0  0  0  0  0  0
   -5.4357    2.3709  -23.3600 C   0  0  0  0  0  0  0  0  0  0  0  0
   -1.0176    3.3962  -24.4836 N   0  0  0  0  0  0  0  0  0  0  0  0
   -0.1372    2.5027  -25.2277 C   0  0  2  0  0  0  0  0  0  0  0  0
    1.0013    2.1473  -24.3473 C   0  0  0  0  0  0  0  0  0  0  0  0
    0.9479    2.4539  -23.1340 O   0  0  0  0  0  0  0  0  0  0  0  0
    0.2570    3.0054  -26.5723 C   0  0  0  0  0  0  0  0  0  0  0  0
    1.1570    2.0564  -27.2736 C   0  0  0  0  0  0  0  0  0  0  0  0
    1.6693    2.3905  -28.5105 O   0  0  0  0  0  0  0  0  0  0  0  0
    1.4813    0.9407  -26.7850 O   0  0  0  0  0  0  0  0  0  0  0  0
    2.1383    1.4854  -24.7888 O   0  0  0  0  0  0  0  0  0  0  0  0
  -15.9647   -8.8209  -32.0705 H   0  0  0  0  0  0  0  0  0  0  0  0
  2  1  1  1
  2  3  1  0
  2  5  1  0
  3  4  2  0
  3 12  1  0
  5  6  1  0
  6  7  1  0
  7  8  1  0
  8  9  1  0
  9 10  2  0
  9 11  1  0
 12 13  1  0
 13 14  1  0
 13 16  1  6
 14 15  2  0
 14 24  1  0
 16 17  1  0
 17 18  2  0
 17 19  1  0
 18 20  1  0
 19 21  2  0
 20 22  2  0
 21 22  1  0
 22 23  1  0
 24 25  1  0
 25 26  1  0
 25 28  1  1
 26 27  2  0
 26 29  1  0
 30 29  1  6
 30 31  1  0
 30 33  1  0
 31 32  2  0
 31 36  1  0
 33 34  1  1
 33 35  1  0
 37 36  1  6
 37 38  1  0
 37 40  1  0
 38 39  2  0
 38 43  1  0
 40 41  1  1
 40 42  1  0
 43 44  1  0
 43 49  1  0
 44 45  1  1
 44 47  1  0
 45 46  2  0
 45 50  1  0
 47 48  1  0
 48 49  1  0
 50 51  1  0
 51 52  1  0
 51 54  1  6
 52 53  2  0
 52 58  1  0
 54 55  1  0
 55 56  1  0
 55 57  2  0
 10 59  1  0
M  CHG  1   1   1
M  END
$$$$
