
     RDKit          3D

 59 60  0  0  0  0  0  0  0  0999 V2000
    0.2141    1.6386  -24.7131 N   0  0  0  0  0  4  0  0  0  0  0  0
   -0.8531    1.6504  -23.7330 C   0  0  2  0  0  0  0  0  0  0  0  0
   -1.9611    0.8109  -24.3467 C   0  0  0  0  0  0  0  0  0  0  0  0
   -1.6274    0.0708  -25.2943 O   0  0  0  0  0  0  0  0  0  0  0  0
   -1.4558    3.0260  -23.5662 C   0  0  0  0  0  0  0  0  0  0  0  0
   -0.6215    3.9831  -22.7961 C   0  0  0  0  0  0  0  0  0  0  0  0
   -1.2100    5.3492  -22.5901 C   0  0  0  0  0  0  0  0  0  0  0  0
   -1.7541    5.9411  -23.7812 N   0  0  0  0  0  0  0  0  0  0  0  0
   -2.9841    6.6974  -23.7827 C   0  0  0  0  0  0  0  0  0  0  0  0
   -3.8445    6.4900  -22.8592 N   0  0  0  0  0  0  0  0  0  0  0  0
   -3.2228    7.6585  -24.8243 N   0  0  0  0  0  0  0  0  0  0  0  0
   -3.2845    0.8407  -23.8955 N   0  0  0  0  0  0  0  0  0  0  0  0
   -4.4125    0.3543  -24.6262 C   0  0  2  0  0  0  0  0  0  0  0  0
   -4.1951    0.0119  -26.0286 C   0  0  0  0  0  0  0  0  0  0  0  0
   -2.9811   -0.1794  -26.4194 O   0  0  0  0  0  0  0  0  0  0  0  0
   -5.6304    1.2347  -24.4163 C   0  0  0  0  0  0  0  0  0  0  0  0
   -5.8158    1.5213  -22.9619 C   0  0  0  0  0  0  0  0  0  0  0  0
   -6.6394    0.6897  -22.1974 C   0  0  0  0  0  0  0  0  0  0  0  0
   -5.2213    2.5770  -22.3181 C   0  0  0  0  0  0  0  0  0  0  0  0
   -6.8568    0.9005  -20.8635 C   0  0  0  0  0  0  0  0  0  0  0  0
   -5.4410    2.7856  -20.9867 C   0  0  0  0  0  0  0  0  0  0  0  0
   -6.2549    1.9626  -20.2319 C   0  0  0  0  0  0  0  0  0  0  0  0
   -6.4605    2.1901  -18.8936 O   0  0  0  0  0  0  0  0  0  0  0  0
   -5.1707   -0.1391  -27.0498 N   0  0  0  0  0  0  0  0  0  0  0  0
   -4.9752   -1.1217  -28.0952 C   0  0  2  0  0  0  0  0  0  0  0  0
   -6.2086   -1.9726  -28.2540 C   0  0  0  0  0  0  0  0  0  0  0  0
   -6.4774   -2.8255  -27.4001 O   0  0  0  0  0  0  0  0  0  0  0  0
   -3.7877   -1.9844  -27.9680 C   0  0  0  0  0  0  0  0  0  0  0  0
   -7.0710   -1.7987  -29.3708 N   0  0  0  0  0  0  0  0  0  0  0  0
   -7.8681   -2.8307  -29.9454 C   0  0  2  0  0  0  0  0  0  0  0  0
   -7.2069   -4.1709  -30.0252 C   0  0  0  0  0  0  0  0  0  0  0  0
   -6.1386   -4.3406  -29.4219 O   0  0  0  0  0  0  0  0  0  0  0  0
   -8.2056   -2.4331  -31.3860 C   0  0  1  0  0  0  0  0  0  0  0  0
   -8.5831   -0.9689  -31.4748 C   0  0  0  0  0  0  0  0  0  0  0  0
   -7.0782   -2.7632  -32.3143 C   0  0  0  0  0  0  0  0  0  0  0  0
   -7.7666   -5.2202  -30.7633 N   0  0  0  0  0  0  0  0  0  0  0  0
   -8.4271   -6.4153  -30.1978 C   0  0  2  0  0  0  0  0  0  0  0  0
   -8.9244   -7.2680  -31.2391 C   0  0  0  0  0  0  0  0  0  0  0  0
  -10.0980   -6.9438  -31.7077 O   0  0  0  0  0  0  0  0  0  0  0  0
   -9.3404   -5.8888  -29.1453 C   0  0  1  0  0  0  0  0  0  0  0  0
  -10.7892   -6.1361  -29.6588 C   0  0  0  0  0  0  0  0  0  0  0  0
   -9.2104   -6.4894  -27.7947 C   0  0  0  0  0  0  0  0  0  0  0  0
   -8.3421   -8.3942  -31.8304 N   0  0  0  0  0  0  0  0  0  0  0  0
   -8.1228   -8.7229  -33.1857 C   0  0  2  0  0  0  0  0  0  0  0  0
   -9.2437   -9.2411  -33.9644 C   0  0  0  0  0  0  0  0  0  0  0  0
   -9.4170  -10.5043  -34.0559 O   0  0  0  0  0  0  0  0  0  0  0  0
   -6.9814   -9.7520  -33.2175 C   0  0  0  0  0  0  0  0  0  0  0  0
   -7.1968  -10.4959  -31.9391 C   0  0  0  0  0  0  0  0  0  0  0  0
   -7.8661   -9.5332  -31.0097 C   0  0  0  0  0  0  0  0  0  0  0  0
  -10.2212   -8.4584  -34.6754 N   0  0  0  0  0  0  0  0  0  0  0  0
  -10.7340   -8.9287  -35.9571 C   0  0  2  0  0  0  0  0  0  0  0  0
  -10.0564  -10.2077  -36.2777 C   0  0  0  0  0  0  0  0  0  0  0  0
  -10.4072  -10.8395  -37.3007 O   0  0  0  0  0  0  0  0  0  0  0  0
  -10.6881   -7.9166  -37.0478 C   0  0  0  0  0  0  0  0  0  0  0  0
  -11.2622   -6.6172  -36.6186 C   0  0  0  0  0  0  0  0  0  0  0  0
  -11.2614   -5.5497  -37.4930 O   0  0  0  0  0  0  0  0  0  0  0  0
  -11.7590   -6.4389  -35.4740 O   0  0  0  0  0  0  0  0  0  0  0  0
   -9.0422  -10.7561  -35.5054 O   0  0  0  0  0  0  0  0  0  0  0  0
   -4.1656    5.6065  -22.4644 H   0  0  0  0  0  0  0  0  0  0  0  0
  2  1  1  6
  2  3  1  0
  2  5  1  0
  3  4  2  0
  3 12  1  0
  5  6  1  0
  6  7  1  0
  7  8  1  0
  8  9  1  0
  9 10  2  0
  9 11  1  0
 12 13  1  0
 13 14  1  0
 13 16  1  6
 14 15  2  0
 14 24  1  0
 16 17  1  0
 17 18  2  0
 17 19  1  0
 18 20  1  0
 19 21  2  0
 20 22  2  0
 21 22  1  0
 22 23  1  0
 24 25  1  0
 25 26  1  0
 25 28  1  1
 26 27  2  0
 26 29  1  0
 30 29  1  6
 30 31  1  0
 30 33  1  0
 31 32  2  0
 31 36  1  0
 33 34  1  1
 33 35  1  0
 37 36  1  6
 37 38  1  0
 37 40  1  0
 38 39  2  0
 38 43  1  0
 40 41  1  6
 40 42  1  0
 43 44  1  0
 43 49  1  0
 44 45  1  1
 44 47  1  0
 45 46  2  0
 45 50  1  0
 47 48  1  0
 48 49  1  0
 50 51  1  0
 51 52  1  0
 51 54  1  6
 52 53  2  0
 52 58  1  0
 54 55  1  0
 55 56  1  0
 55 57  2  0
 10 59  1  0
M  CHG  1   1   1
M  END
$$$$
