
     RDKit          3D

 59 60  0  0  0  0  0  0  0  0999 V2000
   -9.4967   -8.6606  -32.8820 N   0  0  0  0  0  4  0  0  0  0  0  0
  -10.6235   -7.9563  -32.3041 C   0  0  2  0  0  0  0  0  0  0  0  0
  -10.3996   -6.4959  -32.6590 C   0  0  0  0  0  0  0  0  0  0  0  0
  -11.3893   -5.8828  -33.1080 O   0  0  0  0  0  0  0  0  0  0  0  0
  -10.6039   -7.9958  -30.7937 C   0  0  0  0  0  0  0  0  0  0  0  0
  -11.9385   -8.1266  -30.1559 C   0  0  0  0  0  0  0  0  0  0  0  0
  -12.1496   -7.3245  -28.9040 C   0  0  0  0  0  0  0  0  0  0  0  0
  -11.0712   -7.4150  -27.9586 N   0  0  0  0  0  0  0  0  0  0  0  0
  -11.0825   -6.7155  -26.6955 C   0  0  0  0  0  0  0  0  0  0  0  0
  -10.0740   -5.9984  -26.3711 N   0  0  0  0  0  0  0  0  0  0  0  0
  -12.2180   -6.8458  -25.8242 N   0  0  0  0  0  0  0  0  0  0  0  0
   -9.1704   -5.8482  -32.4991 N   0  0  0  0  0  0  0  0  0  0  0  0
   -8.3102   -5.9871  -31.3662 C   0  0  2  0  0  0  0  0  0  0  0  0
   -7.2187   -5.0257  -31.2419 C   0  0  0  0  0  0  0  0  0  0  0  0
   -6.1816   -5.1937  -31.9897 O   0  0  0  0  0  0  0  0  0  0  0  0
   -7.8534   -7.4234  -31.1900 C   0  0  0  0  0  0  0  0  0  0  0  0
   -6.7069   -7.4870  -30.2345 C   0  0  0  0  0  0  0  0  0  0  0  0
   -6.1082   -8.7204  -29.9610 C   0  0  0  0  0  0  0  0  0  0  0  0
   -6.1991   -6.3879  -29.5892 C   0  0  0  0  0  0  0  0  0  0  0  0
   -5.0601   -8.8488  -29.0915 C   0  0  0  0  0  0  0  0  0  0  0  0
   -5.1535   -6.5191  -28.7211 C   0  0  0  0  0  0  0  0  0  0  0  0
   -4.5622   -7.7387  -28.4519 C   0  0  0  0  0  0  0  0  0  0  0  0
   -3.5103   -7.8474  -27.5763 O   0  0  0  0  0  0  0  0  0  0  0  0
   -7.1434   -3.8997  -30.3793 N   0  0  0  0  0  0  0  0  0  0  0  0
   -7.0687   -2.5660  -30.9381 C   0  0  2  0  0  0  0  0  0  0  0  0
   -7.0175   -1.5374  -29.8381 C   0  0  0  0  0  0  0  0  0  0  0  0
   -7.9622   -0.7538  -29.6891 O   0  0  0  0  0  0  0  0  0  0  0  0
   -8.1152   -2.2045  -31.9100 C   0  0  0  0  0  0  0  0  0  0  0  0
   -5.8982   -1.4647  -28.9644 N   0  0  0  0  0  0  0  0  0  0  0  0
   -5.9176   -0.8608  -27.6740 C   0  0  2  0  0  0  0  0  0  0  0  0
   -4.6430   -0.9824  -26.8991 C   0  0  0  0  0  0  0  0  0  0  0  0
   -4.0573   -2.0737  -26.8909 O   0  0  0  0  0  0  0  0  0  0  0  0
   -6.9968   -1.5521  -26.8346 C   0  0  1  0  0  0  0  0  0  0  0  0
   -7.1207   -0.9108  -25.4680 C   0  0  0  0  0  0  0  0  0  0  0  0
   -8.3109   -1.5661  -27.5520 C   0  0  0  0  0  0  0  0  0  0  0  0
   -4.1113    0.1010  -26.1903 N   0  0  0  0  0  0  0  0  0  0  0  0
   -2.8125    0.7531  -26.4594 C   0  0  2  0  0  0  0  0  0  0  0  0
   -2.5864    1.8409  -25.5515 C   0  0  0  0  0  0  0  0  0  0  0  0
   -3.4079    2.8467  -25.6762 O   0  0  0  0  0  0  0  0  0  0  0  0
   -2.7909    0.9751  -27.9322 C   0  0  1  0  0  0  0  0  0  0  0  0
   -1.4191    1.6365  -28.2554 C   0  0  0  0  0  0  0  0  0  0  0  0
   -2.9461   -0.2287  -28.7858 C   0  0  0  0  0  0  0  0  0  0  0  0
   -1.6197    1.9876  -24.5510 N   0  0  0  0  0  0  0  0  0  0  0  0
   -1.3528    3.0553  -23.6669 C   0  0  2  0  0  0  0  0  0  0  0  0
   -0.6013    4.2015  -24.1698 C   0  0  0  0  0  0  0  0  0  0  0  0
    0.6038    4.3833  -23.7844 O   0  0  0  0  0  0  0  0  0  0  0  0
   -0.6029    2.4626  -22.4630 C   0  0  0  0  0  0  0  0  0  0  0  0
    0.1748    1.3538  -23.0954 C   0  0  0  0  0  0  0  0  0  0  0  0
   -0.6119    0.9309  -24.2957 C   0  0  0  0  0  0  0  0  0  0  0  0
   -1.0829    5.1981  -25.0909 N   0  0  0  0  0  0  0  0  0  0  0  0
   -0.3838    6.4723  -25.2118 C   0  0  2  0  0  0  0  0  0  0  0  0
   -1.1066    7.2960  -26.2102 C   0  0  0  0  0  0  0  0  0  0  0  0
   -0.4547    7.8487  -27.1259 O   0  0  0  0  0  0  0  0  0  0  0  0
    1.0797    6.3513  -25.4561 C   0  0  0  0  0  0  0  0  0  0  0  0
    1.8175    7.5519  -24.9907 C   0  0  0  0  0  0  0  0  0  0  0  0
    3.1843    7.6225  -25.1663 O   0  0  0  0  0  0  0  0  0  0  0  0
    1.2455    8.5269  -24.4331 O   0  0  0  0  0  0  0  0  0  0  0  0
   -2.4799    7.4948  -26.1949 O   0  0  0  0  0  0  0  0  0  0  0  0
   -9.7822   -5.0934  -26.7387 H   0  0  0  0  0  0  0  0  0  0  0  0
  2  1  1  6
  2  3  1  0
  2  5  1  0
  3  4  2  0
  3 12  1  0
  5  6  1  0
  6  7  1  0
  7  8  1  0
  8  9  1  0
  9 10  2  0
  9 11  1  0
 12 13  1  0
 13 14  1  0
 13 16  1  6
 14 15  2  0
 14 24  1  0
 16 17  1  0
 17 18  2  0
 17 19  1  0
 18 20  1  0
 19 21  2  0
 20 22  2  0
 21 22  1  0
 22 23  1  0
 24 25  1  0
 25 26  1  0
 25 28  1  6
 26 27  2  0
 26 29  1  0
 30 29  1  6
 30 31  1  0
 30 33  1  0
 31 32  2  0
 31 36  1  0
 33 34  1  1
 33 35  1  0
 37 36  1  1
 37 38  1  0
 37 40  1  0
 38 39  2  0
 38 43  1  0
 40 41  1  6
 40 42  1  0
 43 44  1  0
 43 49  1  0
 44 45  1  6
 44 47  1  0
 45 46  2  0
 45 50  1  0
 47 48  1  0
 48 49  1  0
 50 51  1  0
 51 52  1  0
 51 54  1  6
 52 53  2  0
 52 58  1  0
 54 55  1  0
 55 56  1  0
 55 57  2  0
 10 59  1  0
M  CHG  1   1   1
M  END
$$$$
