
     RDKit          3D

 59 60  0  0  0  0  0  0  0  0999 V2000
   -0.7948    3.4147  -26.3252 N   0  0  0  0  0  4  0  0  0  0  0  0
   -1.0036    3.9939  -25.0135 C   0  0  2  0  0  0  0  0  0  0  0  0
    0.1403    3.4669  -24.1634 C   0  0  0  0  0  0  0  0  0  0  0  0
    0.3984    4.1149  -23.1288 O   0  0  0  0  0  0  0  0  0  0  0  0
   -2.2546    3.4646  -24.3516 C   0  0  0  0  0  0  0  0  0  0  0  0
   -2.4544    3.9104  -22.9492 C   0  0  0  0  0  0  0  0  0  0  0  0
   -3.8107    4.4667  -22.6239 C   0  0  0  0  0  0  0  0  0  0  0  0
   -4.8870    3.5298  -22.7935 N   0  0  0  0  0  0  0  0  0  0  0  0
   -6.2680    3.8797  -22.5586 C   0  0  0  0  0  0  0  0  0  0  0  0
   -6.5631    5.0888  -22.2633 N   0  0  0  0  0  0  0  0  0  0  0  0
   -7.2810    2.8642  -22.6502 N   0  0  0  0  0  0  0  0  0  0  0  0
    0.8759    2.3237  -24.4921 N   0  0  0  0  0  0  0  0  0  0  0  0
    0.5400    1.4018  -25.5314 C   0  0  2  0  0  0  0  0  0  0  0  0
   -0.4329    0.3631  -25.2060 C   0  0  0  0  0  0  0  0  0  0  0  0
   -0.2873   -0.2688  -24.0913 O   0  0  0  0  0  0  0  0  0  0  0  0
    1.7823    0.8542  -26.2093 C   0  0  0  0  0  0  0  0  0  0  0  0
    3.0097    1.4169  -25.5702 C   0  0  0  0  0  0  0  0  0  0  0  0
    3.3502    2.7540  -25.7956 C   0  0  0  0  0  0  0  0  0  0  0  0
    3.8454    0.6853  -24.7647 C   0  0  0  0  0  0  0  0  0  0  0  0
    4.4635    3.3285  -25.2466 C   0  0  0  0  0  0  0  0  0  0  0  0
    4.9566    1.2612  -24.2188 C   0  0  0  0  0  0  0  0  0  0  0  0
    5.2918    2.5830  -24.4420 C   0  0  0  0  0  0  0  0  0  0  0  0
    6.4135    3.1422  -23.8814 O   0  0  0  0  0  0  0  0  0  0  0  0
   -1.5481   -0.0586  -25.9779 N   0  0  0  0  0  0  0  0  0  0  0  0
   -2.3836   -1.1432  -25.5064 C   0  0  2  0  0  0  0  0  0  0  0  0
   -3.4949   -1.4151  -26.4871 C   0  0  0  0  0  0  0  0  0  0  0  0
   -4.4120   -0.5957  -26.6148 O   0  0  0  0  0  0  0  0  0  0  0  0
   -2.9404   -0.9979  -24.1502 C   0  0  0  0  0  0  0  0  0  0  0  0
   -3.4948   -2.5996  -27.2734 N   0  0  0  0  0  0  0  0  0  0  0  0
   -4.4721   -2.9144  -28.2615 C   0  0  2  0  0  0  0  0  0  0  0  0
   -5.6880   -3.6191  -27.7471 C   0  0  0  0  0  0  0  0  0  0  0  0
   -5.5702   -4.3592  -26.7610 O   0  0  0  0  0  0  0  0  0  0  0  0
   -3.8336   -3.8556  -29.2879 C   0  0  1  0  0  0  0  0  0  0  0  0
   -4.8192   -4.2267  -30.3766 C   0  0  0  0  0  0  0  0  0  0  0  0
   -2.5853   -3.2603  -29.8617 C   0  0  0  0  0  0  0  0  0  0  0  0
   -6.9382   -3.4606  -28.3560 N   0  0  0  0  0  0  0  0  0  0  0  0
   -8.1994   -4.0902  -27.9116 C   0  0  2  0  0  0  0  0  0  0  0  0
   -8.5548   -5.1866  -28.7662 C   0  0  0  0  0  0  0  0  0  0  0  0
   -9.5656   -5.9029  -28.3573 O   0  0  0  0  0  0  0  0  0  0  0  0
   -9.1416   -2.9564  -27.6980 C   0  0  1  0  0  0  0  0  0  0  0  0
  -10.5581   -3.5856  -27.5516 C   0  0  0  0  0  0  0  0  0  0  0  0
   -8.8845   -2.0950  -26.5175 C   0  0  0  0  0  0  0  0  0  0  0  0
   -7.9836   -5.6046  -29.9729 N   0  0  0  0  0  0  0  0  0  0  0  0
   -8.0200   -5.0351  -31.2641 C   0  0  2  0  0  0  0  0  0  0  0  0
   -9.2121   -5.2427  -32.0809 C   0  0  0  0  0  0  0  0  0  0  0  0
  -10.3681   -5.0609  -31.5666 O   0  0  0  0  0  0  0  0  0  0  0  0
   -6.7989   -5.5752  -32.0260 C   0  0  0  0  0  0  0  0  0  0  0  0
   -6.6496   -6.9442  -31.4448 C   0  0  0  0  0  0  0  0  0  0  0  0
   -7.2144   -6.8687  -30.0614 C   0  0  0  0  0  0  0  0  0  0  0  0
   -9.2381   -5.6486  -33.4623 N   0  0  0  0  0  0  0  0  0  0  0  0
   -9.7616   -4.7398  -34.4757 C   0  0  2  0  0  0  0  0  0  0  0  0
   -9.7539   -5.4529  -35.7753 C   0  0  0  0  0  0  0  0  0  0  0  0
   -9.4227   -6.6606  -35.8019 O   0  0  0  0  0  0  0  0  0  0  0  0
   -9.1064   -3.4033  -34.5021 C   0  0  0  0  0  0  0  0  0  0  0  0
   -9.5949   -2.5721  -35.6303 C   0  0  0  0  0  0  0  0  0  0  0  0
  -10.4974   -3.1044  -36.5282 O   0  0  0  0  0  0  0  0  0  0  0  0
   -9.2184   -1.3828  -35.8107 O   0  0  0  0  0  0  0  0  0  0  0  0
  -10.0968   -4.8585  -36.9815 O   0  0  0  0  0  0  0  0  0  0  0  0
   -6.6781    5.8928  -22.8795 H   0  0  0  0  0  0  0  0  0  0  0  0
  2  1  1  6
  2  3  1  0
  2  5  1  0
  3  4  2  0
  3 12  1  0
  5  6  1  0
  6  7  1  0
  7  8  1  0
  8  9  1  0
  9 10  2  0
  9 11  1  0
 12 13  1  0
 13 14  1  0
 13 16  1  1
 14 15  2  0
 14 24  1  0
 16 17  1  0
 17 18  2  0
 17 19  1  0
 18 20  1  0
 19 21  2  0
 20 22  2  0
 21 22  1  0
 22 23  1  0
 24 25  1  0
 25 26  1  0
 25 28  1  1
 26 27  2  0
 26 29  1  0
 30 29  1  1
 30 31  1  0
 30 33  1  0
 31 32  2  0
 31 36  1  0
 33 34  1  6
 33 35  1  0
 37 36  1  6
 37 38  1  0
 37 40  1  0
 38 39  2  0
 38 43  1  0
 40 41  1  1
 40 42  1  0
 43 44  1  0
 43 49  1  0
 44 45  1  6
 44 47  1  0
 45 46  2  0
 45 50  1  0
 47 48  1  0
 48 49  1  0
 50 51  1  0
 51 52  1  0
 51 54  1  6
 52 53  2  0
 52 58  1  0
 54 55  1  0
 55 56  1  0
 55 57  2  0
 10 59  1  0
M  CHG  1   1   1
M  END
$$$$
