
     RDKit          3D

 59 60  0  0  0  0  0  0  0  0999 V2000
   -2.0731    3.1893  -24.0122 N   0  0  0  0  0  4  0  0  0  0  0  0
   -1.9088    1.7668  -24.2339 C   0  0  2  0  0  0  0  0  0  0  0  0
   -2.8516    1.1023  -23.2447 C   0  0  0  0  0  0  0  0  0  0  0  0
   -2.7624    1.4850  -22.0604 O   0  0  0  0  0  0  0  0  0  0  0  0
   -0.5315    1.2860  -23.8401 C   0  0  0  0  0  0  0  0  0  0  0  0
    0.5183    2.3363  -23.8368 C   0  0  0  0  0  0  0  0  0  0  0  0
    0.9518    2.8272  -22.4855 C   0  0  0  0  0  0  0  0  0  0  0  0
   -0.0069    3.6751  -21.8321 N   0  0  0  0  0  0  0  0  0  0  0  0
   -0.8115    3.2276  -20.7197 C   0  0  0  0  0  0  0  0  0  0  0  0
   -1.7285    2.3594  -20.9233 N   0  0  0  0  0  0  0  0  0  0  0  0
   -0.5749    3.7720  -19.4109 N   0  0  0  0  0  0  0  0  0  0  0  0
   -3.7782    0.1205  -23.6102 N   0  0  0  0  0  0  0  0  0  0  0  0
   -4.9454    0.3475  -24.4032 C   0  0  2  0  0  0  0  0  0  0  0  0
   -4.9529   -0.2207  -25.7480 C   0  0  0  0  0  0  0  0  0  0  0  0
   -5.9196    0.1101  -26.5349 O   0  0  0  0  0  0  0  0  0  0  0  0
   -5.3572    1.8077  -24.3780 C   0  0  0  0  0  0  0  0  0  0  0  0
   -5.9072    2.1659  -23.0361 C   0  0  0  0  0  0  0  0  0  0  0  0
   -6.4739    3.4290  -22.8408 C   0  0  0  0  0  0  0  0  0  0  0  0
   -5.8833    1.3171  -21.9585 C   0  0  0  0  0  0  0  0  0  0  0  0
   -6.9886    3.8222  -21.6360 C   0  0  0  0  0  0  0  0  0  0  0  0
   -6.3969    1.7126  -20.7568 C   0  0  0  0  0  0  0  0  0  0  0  0
   -6.9573    2.9611  -20.5652 C   0  0  0  0  0  0  0  0  0  0  0  0
   -7.4695    3.3375  -19.3482 O   0  0  0  0  0  0  0  0  0  0  0  0
   -4.0121   -1.1181  -26.3199 N   0  0  0  0  0  0  0  0  0  0  0  0
   -4.1599   -1.5372  -27.6980 C   0  0  2  0  0  0  0  0  0  0  0  0
   -5.6108   -1.7877  -28.0184 C   0  0  0  0  0  0  0  0  0  0  0  0
   -6.4782   -1.5148  -27.1806 O   0  0  0  0  0  0  0  0  0  0  0  0
   -3.3497   -2.6929  -28.1205 C   0  0  0  0  0  0  0  0  0  0  0  0
   -5.9932   -2.3262  -29.2774 N   0  0  0  0  0  0  0  0  0  0  0  0
   -7.3057   -2.7786  -29.5985 C   0  0  2  0  0  0  0  0  0  0  0  0
   -7.3974   -4.2147  -30.0093 C   0  0  0  0  0  0  0  0  0  0  0  0
   -6.6154   -4.6341  -30.8734 O   0  0  0  0  0  0  0  0  0  0  0  0
   -7.8203   -1.9596  -30.7866 C   0  0  1  0  0  0  0  0  0  0  0  0
   -8.6349   -0.7711  -30.3194 C   0  0  0  0  0  0  0  0  0  0  0  0
   -6.6936   -1.5333  -31.6757 C   0  0  0  0  0  0  0  0  0  0  0  0
   -8.3418   -5.0789  -29.4434 N   0  0  0  0  0  0  0  0  0  0  0  0
   -8.5199   -6.5053  -29.7872 C   0  0  2  0  0  0  0  0  0  0  0  0
   -8.4801   -6.6997  -31.2082 C   0  0  0  0  0  0  0  0  0  0  0  0
   -8.7595   -5.6427  -31.9202 O   0  0  0  0  0  0  0  0  0  0  0  0
   -9.6988   -6.9488  -28.9919 C   0  0  1  0  0  0  0  0  0  0  0  0
   -9.9182   -8.4515  -29.3347 C   0  0  0  0  0  0  0  0  0  0  0  0
   -9.5928   -6.8126  -27.5182 C   0  0  0  0  0  0  0  0  0  0  0  0
   -8.1859   -7.8500  -31.9480 N   0  0  0  0  0  0  0  0  0  0  0  0
   -8.1621   -8.0775  -33.3409 C   0  0  2  0  0  0  0  0  0  0  0  0
   -9.4300   -8.2992  -34.0298 C   0  0  0  0  0  0  0  0  0  0  0  0
  -10.3695   -8.9285  -33.4339 O   0  0  0  0  0  0  0  0  0  0  0  0
   -7.2508   -9.2921  -33.5805 C   0  0  0  0  0  0  0  0  0  0  0  0
   -7.4867  -10.1062  -32.3494 C   0  0  0  0  0  0  0  0  0  0  0  0
   -7.8663   -9.1332  -31.2781 C   0  0  0  0  0  0  0  0  0  0  0  0
   -9.7600   -7.8726  -35.3651 N   0  0  0  0  0  0  0  0  0  0  0  0
  -11.1211   -7.4518  -35.6766 C   0  0  2  0  0  0  0  0  0  0  0  0
  -11.7064   -8.4506  -36.6027 C   0  0  0  0  0  0  0  0  0  0  0  0
  -11.0055   -9.4225  -36.9676 O   0  0  0  0  0  0  0  0  0  0  0  0
  -11.2396   -6.0410  -36.1367 C   0  0  0  0  0  0  0  0  0  0  0  0
  -12.6327   -5.5410  -36.0283 C   0  0  0  0  0  0  0  0  0  0  0  0
  -12.9371   -4.2702  -36.4716 O   0  0  0  0  0  0  0  0  0  0  0  0
  -13.5671   -6.2334  -35.5424 O   0  0  0  0  0  0  0  0  0  0  0  0
  -13.0010   -8.3763  -37.0968 O   0  0  0  0  0  0  0  0  0  0  0  0
   -1.6576    1.4344  -21.3462 H   0  0  0  0  0  0  0  0  0  0  0  0
  2  1  1  1
  2  3  1  0
  2  5  1  0
  3  4  2  0
  3 12  1  0
  5  6  1  0
  6  7  1  0
  7  8  1  0
  8  9  1  0
  9 10  2  0
  9 11  1  0
 12 13  1  0
 13 14  1  0
 13 16  1  6
 14 15  2  0
 14 24  1  0
 16 17  1  0
 17 18  2  0
 17 19  1  0
 18 20  1  0
 19 21  2  0
 20 22  2  0
 21 22  1  0
 22 23  1  0
 24 25  1  0
 25 26  1  0
 25 28  1  1
 26 27  2  0
 26 29  1  0
 30 29  1  6
 30 31  1  0
 30 33  1  0
 31 32  2  0
 31 36  1  0
 33 34  1  1
 33 35  1  0
 37 36  1  6
 37 38  1  0
 37 40  1  0
 38 39  2  0
 38 43  1  0
 40 41  1  1
 40 42  1  0
 43 44  1  0
 43 49  1  0
 44 45  1  1
 44 47  1  0
 45 46  2  0
 45 50  1  0
 47 48  1  0
 48 49  1  0
 50 51  1  0
 51 52  1  0
 51 54  1  6
 52 53  2  0
 52 58  1  0
 54 55  1  0
 55 56  1  0
 55 57  2  0
 10 59  1  0
M  CHG  1   1   1
M  END
$$$$
