
     RDKit          3D

 59 60  0  0  0  0  0  0  0  0999 V2000
    1.4733    2.5000  -23.8013 N   0  0  0  0  0  4  0  0  0  0  0  0
    0.3868    3.1077  -24.5429 C   0  0  2  0  0  0  0  0  0  0  0  0
   -0.8087    2.2006  -24.3046 C   0  0  0  0  0  0  0  0  0  0  0  0
   -0.5962    0.9753  -24.4061 O   0  0  0  0  0  0  0  0  0  0  0  0
    0.6201    3.0579  -26.0350 C   0  0  0  0  0  0  0  0  0  0  0  0
   -0.5531    3.4376  -26.8625 C   0  0  0  0  0  0  0  0  0  0  0  0
   -0.3350    3.4417  -28.3482 C   0  0  0  0  0  0  0  0  0  0  0  0
   -1.5429    3.5440  -29.1199 N   0  0  0  0  0  0  0  0  0  0  0  0
   -1.6155    3.1529  -30.5079 C   0  0  0  0  0  0  0  0  0  0  0  0
   -1.4952    1.9168  -30.8143 N   0  0  0  0  0  0  0  0  0  0  0  0
   -1.8102    4.1575  -31.5172 N   0  0  0  0  0  0  0  0  0  0  0  0
   -2.0829    2.6804  -23.9845 N   0  0  0  0  0  0  0  0  0  0  0  0
   -3.2475    1.8692  -23.8164 C   0  0  2  0  0  0  0  0  0  0  0  0
   -3.7009    1.1127  -24.9797 C   0  0  0  0  0  0  0  0  0  0  0  0
   -3.2182    1.4346  -26.1315 O   0  0  0  0  0  0  0  0  0  0  0  0
   -4.3670    2.6399  -23.1416 C   0  0  0  0  0  0  0  0  0  0  0  0
   -5.4389    1.7030  -22.6888 C   0  0  0  0  0  0  0  0  0  0  0  0
   -5.1926    0.3268  -22.6868 C   0  0  0  0  0  0  0  0  0  0  0  0
   -6.6789    2.1177  -22.2733 C   0  0  0  0  0  0  0  0  0  0  0  0
   -6.1327   -0.5846  -22.2912 C   0  0  0  0  0  0  0  0  0  0  0  0
   -7.6157    1.2056  -21.8799 C   0  0  0  0  0  0  0  0  0  0  0  0
   -7.3709   -0.1544  -21.8779 C   0  0  0  0  0  0  0  0  0  0  0  0
   -8.3274   -1.0540  -21.4765 O   0  0  0  0  0  0  0  0  0  0  0  0
   -4.6325    0.0410  -25.0131 N   0  0  0  0  0  0  0  0  0  0  0  0
   -4.4317   -1.0617  -25.9298 C   0  0  2  0  0  0  0  0  0  0  0  0
   -5.5467   -2.0664  -25.7955 C   0  0  0  0  0  0  0  0  0  0  0  0
   -6.1219   -2.2003  -24.7093 O   0  0  0  0  0  0  0  0  0  0  0  0
   -3.1305   -1.7481  -25.8520 C   0  0  0  0  0  0  0  0  0  0  0  0
   -5.9499   -2.8554  -26.9074 N   0  0  0  0  0  0  0  0  0  0  0  0
   -7.1658   -2.6754  -27.6283 C   0  0  2  0  0  0  0  0  0  0  0  0
   -7.2770   -3.4717  -28.8905 C   0  0  0  0  0  0  0  0  0  0  0  0
   -7.9912   -3.0361  -29.8040 O   0  0  0  0  0  0  0  0  0  0  0  0
   -7.2683   -1.2033  -28.0401 C   0  0  1  0  0  0  0  0  0  0  0  0
   -8.5315   -0.9447  -28.8348 C   0  0  0  0  0  0  0  0  0  0  0  0
   -7.1800   -0.3026  -26.8473 C   0  0  0  0  0  0  0  0  0  0  0  0
   -6.5995   -4.6856  -29.0521 N   0  0  0  0  0  0  0  0  0  0  0  0
   -7.0694   -5.8349  -29.8538 C   0  0  2  0  0  0  0  0  0  0  0  0
   -7.4215   -5.4242  -31.1827 C   0  0  0  0  0  0  0  0  0  0  0  0
   -8.5712   -4.8164  -31.2885 O   0  0  0  0  0  0  0  0  0  0  0  0
   -8.0598   -6.5309  -28.9857 C   0  0  1  0  0  0  0  0  0  0  0  0
   -8.6137   -7.7222  -29.8210 C   0  0  0  0  0  0  0  0  0  0  0  0
   -7.5540   -7.0565  -27.6936 C   0  0  0  0  0  0  0  0  0  0  0  0
   -6.7195   -5.5744  -32.3833 N   0  0  0  0  0  0  0  0  0  0  0  0
   -6.8973   -4.9674  -33.6453 C   0  0  2  0  0  0  0  0  0  0  0  0
   -7.9467   -5.4808  -34.5208 C   0  0  0  0  0  0  0  0  0  0  0  0
   -7.8168   -5.3773  -35.7882 O   0  0  0  0  0  0  0  0  0  0  0  0
   -5.5506   -5.0612  -34.3808 C   0  0  0  0  0  0  0  0  0  0  0  0
   -5.0014   -6.3509  -33.8619 C   0  0  0  0  0  0  0  0  0  0  0  0
   -5.5963   -6.5347  -32.5014 C   0  0  0  0  0  0  0  0  0  0  0  0
   -9.1684   -6.1184  -34.1030 N   0  0  0  0  0  0  0  0  0  0  0  0
  -10.3861   -5.9356  -34.8845 C   0  0  2  0  0  0  0  0  0  0  0  0
  -11.4884   -6.6340  -34.1810 C   0  0  0  0  0  0  0  0  0  0  0  0
  -11.2890   -7.0691  -33.0235 O   0  0  0  0  0  0  0  0  0  0  0  0
  -10.2527   -6.2885  -36.3246 C   0  0  0  0  0  0  0  0  0  0  0  0
  -10.1647   -5.0806  -37.1823 C   0  0  0  0  0  0  0  0  0  0  0  0
  -10.1577   -3.8299  -36.5995 O   0  0  0  0  0  0  0  0  0  0  0  0
  -10.0949   -5.1436  -38.4392 O   0  0  0  0  0  0  0  0  0  0  0  0
  -12.7458   -6.8376  -34.7315 O   0  0  0  0  0  0  0  0  0  0  0  0
   -1.3371    1.4918  -31.7274 H   0  0  0  0  0  0  0  0  0  0  0  0
  2  1  1  1
  2  3  1  0
  2  5  1  0
  3  4  2  0
  3 12  1  0
  5  6  1  0
  6  7  1  0
  7  8  1  0
  8  9  1  0
  9 10  2  0
  9 11  1  0
 12 13  1  0
 13 14  1  0
 13 16  1  6
 14 15  2  0
 14 24  1  0
 16 17  1  0
 17 18  2  0
 17 19  1  0
 18 20  1  0
 19 21  2  0
 20 22  2  0
 21 22  1  0
 22 23  1  0
 24 25  1  0
 25 26  1  0
 25 28  1  1
 26 27  2  0
 26 29  1  0
 30 29  1  6
 30 31  1  0
 30 33  1  0
 31 32  2  0
 31 36  1  0
 33 34  1  1
 33 35  1  0
 37 36  1  1
 37 38  1  0
 37 40  1  0
 38 39  2  0
 38 43  1  0
 40 41  1  6
 40 42  1  0
 43 44  1  0
 43 49  1  0
 44 45  1  6
 44 47  1  0
 45 46  2  0
 45 50  1  0
 47 48  1  0
 48 49  1  0
 50 51  1  0
 51 52  1  0
 51 54  1  6
 52 53  2  0
 52 58  1  0
 54 55  1  0
 55 56  1  0
 55 57  2  0
 10 59  1  0
M  CHG  1   1   1
M  END
$$$$
