
     RDKit          3D

 59 60  0  0  0  0  0  0  0  0999 V2000
    2.8056    3.8412  -23.3070 N   0  0  0  0  0  4  0  0  0  0  0  0
    1.4818    3.2761  -23.4743 C   0  0  2  0  0  0  0  0  0  0  0  0
    0.5701    4.4696  -23.7049 C   0  0  0  0  0  0  0  0  0  0  0  0
   -0.0100    4.9195  -22.6959 O   0  0  0  0  0  0  0  0  0  0  0  0
    0.9717    2.6382  -22.2030 C   0  0  0  0  0  0  0  0  0  0  0  0
   -0.2139    1.7614  -22.3775 C   0  0  0  0  0  0  0  0  0  0  0  0
   -1.1491    1.6805  -21.2054 C   0  0  0  0  0  0  0  0  0  0  0  0
   -2.1305    0.6357  -21.3067 N   0  0  0  0  0  0  0  0  0  0  0  0
   -1.8253   -0.6698  -21.8428 C   0  0  0  0  0  0  0  0  0  0  0  0
   -2.7562   -1.3486  -22.3984 N   0  0  0  0  0  0  0  0  0  0  0  0
   -0.4881   -1.1851  -21.7331 N   0  0  0  0  0  0  0  0  0  0  0  0
    0.3756    5.0541  -24.9605 N   0  0  0  0  0  0  0  0  0  0  0  0
   -0.8753    5.1258  -25.6482 C   0  0  2  0  0  0  0  0  0  0  0  0
   -1.9756    4.3348  -25.1051 C   0  0  0  0  0  0  0  0  0  0  0  0
   -2.0232    4.1693  -23.8270 O   0  0  0  0  0  0  0  0  0  0  0  0
   -0.6972    4.9392  -27.1435 C   0  0  0  0  0  0  0  0  0  0  0  0
   -2.0065    5.1029  -27.8438 C   0  0  0  0  0  0  0  0  0  0  0  0
   -3.1161    5.5614  -27.1275 C   0  0  0  0  0  0  0  0  0  0  0  0
   -2.1934    4.8179  -29.1728 C   0  0  0  0  0  0  0  0  0  0  0  0
   -4.3442    5.7264  -27.7066 C   0  0  0  0  0  0  0  0  0  0  0  0
   -3.4207    4.9827  -29.7481 C   0  0  0  0  0  0  0  0  0  0  0  0
   -4.5166    5.4364  -29.0390 C   0  0  0  0  0  0  0  0  0  0  0  0
   -5.7415    5.5963  -29.6382 O   0  0  0  0  0  0  0  0  0  0  0  0
   -3.0285    3.7019  -25.8180 N   0  0  0  0  0  0  0  0  0  0  0  0
   -4.0223    2.9293  -25.1024 C   0  0  2  0  0  0  0  0  0  0  0  0
   -5.0361    2.3605  -26.0612 C   0  0  0  0  0  0  0  0  0  0  0  0
   -5.5567    3.0957  -26.9082 O   0  0  0  0  0  0  0  0  0  0  0  0
   -4.7126    3.6158  -23.9967 C   0  0  0  0  0  0  0  0  0  0  0  0
   -5.3934    0.9855  -26.0078 N   0  0  0  0  0  0  0  0  0  0  0  0
   -6.1937    0.3195  -26.9806 C   0  0  2  0  0  0  0  0  0  0  0  0
   -6.4358   -1.1331  -26.7141 C   0  0  0  0  0  0  0  0  0  0  0  0
   -6.1105   -1.5948  -25.6117 O   0  0  0  0  0  0  0  0  0  0  0  0
   -5.4722    0.3928  -28.3301 C   0  0  1  0  0  0  0  0  0  0  0  0
   -5.0232    1.8072  -28.6337 C   0  0  0  0  0  0  0  0  0  0  0  0
   -4.3240   -0.5668  -28.3802 C   0  0  0  0  0  0  0  0  0  0  0  0
   -7.0126   -1.9679  -27.6782 N   0  0  0  0  0  0  0  0  0  0  0  0
   -8.2533   -2.7528  -27.5076 C   0  0  2  0  0  0  0  0  0  0  0  0
   -8.5301   -3.5360  -28.6774 C   0  0  0  0  0  0  0  0  0  0  0  0
   -9.1890   -2.9152  -29.6169 O   0  0  0  0  0  0  0  0  0  0  0  0
   -9.2558   -1.7806  -26.9888 C   0  0  1  0  0  0  0  0  0  0  0  0
  -10.6332   -2.5046  -27.0362 C   0  0  0  0  0  0  0  0  0  0  0  0
   -9.0366   -1.2749  -25.6112 C   0  0  0  0  0  0  0  0  0  0  0  0
   -8.2001   -4.8646  -28.9657 N   0  0  0  0  0  0  0  0  0  0  0  0
   -7.5028   -5.4332  -30.0534 C   0  0  2  0  0  0  0  0  0  0  0  0
   -8.2199   -5.6335  -31.3093 C   0  0  0  0  0  0  0  0  0  0  0  0
   -8.8982   -6.7026  -31.4842 O   0  0  0  0  0  0  0  0  0  0  0  0
   -6.9559   -6.7880  -29.5754 C   0  0  0  0  0  0  0  0  0  0  0  0
   -8.0098   -7.2263  -28.6102 C   0  0  0  0  0  0  0  0  0  0  0  0
   -8.6302   -5.9725  -28.0798 C   0  0  0  0  0  0  0  0  0  0  0  0
   -8.2520   -4.7250  -32.4261 N   0  0  0  0  0  0  0  0  0  0  0  0
   -8.5134   -5.2337  -33.7677 C   0  0  2  0  0  0  0  0  0  0  0  0
   -9.1833   -6.5494  -33.6338 C   0  0  0  0  0  0  0  0  0  0  0  0
   -9.3457   -7.0331  -32.4899 O   0  0  0  0  0  0  0  0  0  0  0  0
   -7.3279   -5.2345  -34.6681 C   0  0  0  0  0  0  0  0  0  0  0  0
   -6.7304   -3.8819  -34.7941 C   0  0  0  0  0  0  0  0  0  0  0  0
   -5.6409   -3.6923  -35.6193 O   0  0  0  0  0  0  0  0  0  0  0  0
   -7.1783   -2.8809  -34.1728 O   0  0  0  0  0  0  0  0  0  0  0  0
   -9.6499   -7.2887  -34.7115 O   0  0  0  0  0  0  0  0  0  0  0  0
   -2.9314   -1.5112  -23.3895 H   0  0  0  0  0  0  0  0  0  0  0  0
  2  1  1  1
  2  3  1  0
  2  5  1  0
  3  4  2  0
  3 12  1  0
  5  6  1  0
  6  7  1  0
  7  8  1  0
  8  9  1  0
  9 10  2  0
  9 11  1  0
 12 13  1  0
 13 14  1  0
 13 16  1  6
 14 15  2  0
 14 24  1  0
 16 17  1  0
 17 18  2  0
 17 19  1  0
 18 20  1  0
 19 21  2  0
 20 22  2  0
 21 22  1  0
 22 23  1  0
 24 25  1  0
 25 26  1  0
 25 28  1  1
 26 27  2  0
 26 29  1  0
 30 29  1  1
 30 31  1  0
 30 33  1  0
 31 32  2  0
 31 36  1  0
 33 34  1  1
 33 35  1  0
 37 36  1  6
 37 38  1  0
 37 40  1  0
 38 39  2  0
 38 43  1  0
 40 41  1  1
 40 42  1  0
 43 44  1  0
 43 49  1  0
 44 45  1  6
 44 47  1  0
 45 46  2  0
 45 50  1  0
 47 48  1  0
 48 49  1  0
 50 51  1  0
 51 52  1  0
 51 54  1  6
 52 53  2  0
 52 58  1  0
 54 55  1  0
 55 56  1  0
 55 57  2  0
 10 59  1  0
M  CHG  1   1   1
M  END
$$$$
