
     RDKit          3D

 33 36  0  0  0  0  0  0  0  0999 V2000
   20.6565  109.4682  -97.5605 C   0  0  2  0  0  0  0  0  0  0  0  0
   20.2003  108.1989  -99.6859 C   0  0  0  0  0  0  0  0  0  0  0  0
   19.5883  107.1788 -100.3456 C   0  0  0  0  0  0  0  0  0  0  0  0
   18.8091  104.8240 -100.4053 N   0  0  0  0  0  0  0  0  0  0  0  0
   20.0467  108.2027 -102.4726 C   0  0  0  0  0  0  0  0  0  0  0  0
   18.6626  106.0340  -98.5046 O   0  0  0  0  0  0  0  0  0  0  0  0
   20.2674  108.2676  -98.2886 N   0  0  0  0  0  0  0  0  0  0  0  0
   21.2452  110.3375 -102.5938 N   0  0  0  0  0  0  0  0  0  0  0  0
   20.6752  109.2545 -101.8502 C   0  0  0  0  0  0  0  0  0  0  0  0
   20.7368  109.2285 -100.4793 C   0  0  0  0  0  0  0  0  0  0  0  0
   20.7837  111.5709 -102.6041 N   0  0  0  0  0  0  0  0  0  0  0  0
   20.7876  108.4116  -95.3027 C   0  0  0  0  0  0  0  0  0  0  0  0
   22.2838  108.7440  -95.2402 C   0  0  1  0  0  0  0  0  0  0  0  0
   22.8077  108.6410  -96.6313 C   0  0  0  0  0  0  0  0  0  0  0  0
   22.1481  109.6690  -97.5355 C   0  0  0  0  0  0  0  0  0  0  0  0
   21.5424  112.3489 -103.4013 C   0  0  0  0  0  0  0  0  0  0  0  0
   22.5480  111.5500 -103.9270 C   0  0  0  0  0  0  0  0  0  0  0  0
   22.3214  110.2779 -103.3871 C   0  0  0  0  0  0  0  0  0  0  0  0
   24.5684  110.6674 -105.1574 C   0  0  0  0  0  0  0  0  0  0  0  0
   24.4708  108.2241 -105.6857 C   0  0  0  0  0  0  0  0  0  0  0  0
   19.5103  107.1809 -101.7544 C   0  0  0  0  0  0  0  0  0  0  0  0
   20.1859  114.2221 -103.2930 F   0  0  0  0  0  0  0  0  0  0  0  0
   23.7932  112.9531 -105.3029 O   0  0  0  0  0  0  0  0  0  0  0  0
   22.3877  114.5502 -103.1153 F   0  0  0  0  0  0  0  0  0  0  0  0
   21.5026  113.9242 -105.1148 F   0  0  0  0  0  0  0  0  0  0  0  0
   22.5270  109.9444  -94.6230 O   0  0  0  0  0  0  0  0  0  0  0  0
   19.0116  106.0419  -99.6884 C   0  0  0  0  0  0  0  0  0  0  0  0
   20.1611  109.4748  -96.1429 C   0  0  0  0  0  0  0  0  0  0  0  0
   23.2110  109.1560 -103.7316 C   0  0  0  0  0  0  0  0  0  0  0  0
   23.7266  109.4014 -105.1569 C   0  0  1  0  0  0  0  0  0  0  0  0
   23.6605  111.7961 -104.8367 C   0  0  0  0  0  0  0  0  0  0  0  0
   22.5297  109.6657 -106.0455 C   0  0  0  0  0  0  0  0  0  0  0  0
   21.4146  113.7899 -103.7230 C   0  0  1  0  0  0  0  0  0  0  0  0
  1  7  1  1
  1 15  1  0
  1 28  1  0
  2  3  2  0
  2  7  1  0
 10  2  1  0
 21  3  1  0
  3 27  1  0
 27  4  1  0
  9  5  1  0
  5 21  2  0
 27  6  2  0
  8  9  1  0
  8 11  1  0
 18  8  1  0
  9 10  2  0
 16 11  2  0
 12 13  1  0
 28 12  1  0
 14 13  1  0
 13 26  1  6
 15 14  1  0
 17 16  1  0
 16 33  1  0
 17 18  2  0
 31 17  1  0
 18 29  1  0
 19 30  1  0
 19 31  1  0
 30 20  1  6
 33 22  1  1
 31 23  2  0
 33 24  1  0
 33 25  1  0
 29 30  1  0
 30 32  1  0
M  END
$$$$
