
     RDKit          3D

 33 36  0  0  0  0  0  0  0  0999 V2000
   18.7678  105.9554 -102.7667 C   0  0  2  0  0  0  0  0  0  0  0  0
   19.3776  107.2181 -100.6761 C   0  0  0  0  0  0  0  0  0  0  0  0
   19.2536  107.4370  -99.3393 C   0  0  0  0  0  0  0  0  0  0  0  0
   18.3128  105.5204  -98.0754 N   0  0  0  0  0  0  0  0  0  0  0  0
   21.1727  108.8862  -99.3402 C   0  0  0  0  0  0  0  0  0  0  0  0
   17.1918  107.4766  -98.1975 O   0  0  0  0  0  0  0  0  0  0  0  0
   18.5310  106.3575 -101.3863 N   0  0  0  0  0  0  0  0  0  0  0  0
   22.3979  109.3277 -101.4169 N   0  0  0  0  0  0  0  0  0  0  0  0
   21.3374  108.6954 -100.6912 C   0  0  0  0  0  0  0  0  0  0  0  0
   20.4416  107.8704 -101.3241 C   0  0  0  0  0  0  0  0  0  0  0  0
   23.6621  109.3395 -101.0480 N   0  0  0  0  0  0  0  0  0  0  0  0
   16.4230  105.2680 -103.2775 C   0  0  0  0  0  0  0  0  0  0  0  0
   16.3434  106.3590 -104.3529 C   0  0  1  0  0  0  0  0  0  0  0  0
   17.1665  107.5031 -103.8693 C   0  0  0  0  0  0  0  0  0  0  0  0
   18.6256  107.1007 -103.7330 C   0  0  0  0  0  0  0  0  0  0  0  0
   24.4061  110.0164 -101.9450 C   0  0  0  0  0  0  0  0  0  0  0  0
   23.5512  110.4595 -102.9445 C   0  0  0  0  0  0  0  0  0  0  0  0
   22.2831  109.9992 -102.5688 C   0  0  0  0  0  0  0  0  0  0  0  0
   22.5595  111.4937 -105.0233 C   0  0  0  0  0  0  0  0  0  0  0  0
   20.1484  112.1269 -104.8132 C   0  0  0  0  0  0  0  0  0  0  0  0
   20.1613  108.2800  -98.6639 C   0  0  0  0  0  0  0  0  0  0  0  0
   26.4387  109.5324 -102.9423 F   0  0  0  0  0  0  0  0  0  0  0  0
   24.9002  111.6323 -104.4334 O   0  0  0  0  0  0  0  0  0  0  0  0
   26.1418  111.6177 -102.2005 F   0  0  0  0  0  0  0  0  0  0  0  0
   26.3759  109.9169 -100.7086 F   0  0  0  0  0  0  0  0  0  0  0  0
   16.6842  105.8925 -105.5968 O   0  0  0  0  0  0  0  0  0  0  0  0
   18.2109  106.8681  -98.5356 C   0  0  0  0  0  0  0  0  0  0  0  0
   17.8551  104.8505 -103.2152 C   0  0  0  0  0  0  0  0  0  0  0  0
   21.1093  110.2880 -103.4099 C   0  0  0  0  0  0  0  0  0  0  0  0
   21.3607  111.6368 -104.0993 C   0  0  1  0  0  0  0  0  0  0  0  0
   23.7422  111.2303 -104.1673 C   0  0  0  0  0  0  0  0  0  0  0  0
   21.7420  112.6407 -103.0322 C   0  0  0  0  0  0  0  0  0  0  0  0
   25.8621  110.2923 -101.9568 C   0  0  1  0  0  0  0  0  0  0  0  0
  1  7  1  1
  1 15  1  0
  1 28  1  0
  2  3  2  0
  2  7  1  0
 10  2  1  0
 21  3  1  0
  3 27  1  0
 27  4  1  0
  9  5  1  0
  5 21  2  0
 27  6  2  0
  8  9  1  0
  8 11  1  0
 18  8  1  0
  9 10  2  0
 16 11  2  0
 12 13  1  0
 28 12  1  0
 14 13  1  0
 13 26  1  6
 15 14  1  0
 17 16  1  0
 16 33  1  0
 17 18  2  0
 31 17  1  0
 18 29  1  0
 19 30  1  0
 19 31  1  0
 30 20  1  6
 33 22  1  6
 31 23  2  0
 33 24  1  0
 33 25  1  0
 29 30  1  0
 30 32  1  0
M  END
$$$$
