
     RDKit          3D

 33 36  0  0  0  0  0  0  0  0999 V2000
   21.0271  109.8745  -97.5096 C   0  0  2  0  0  0  0  0  0  0  0  0
   20.2160  108.4169  -99.3949 C   0  0  0  0  0  0  0  0  0  0  0  0
   19.3065  107.5503  -99.9164 C   0  0  0  0  0  0  0  0  0  0  0  0
   17.3800  105.9949  -99.7573 N   0  0  0  0  0  0  0  0  0  0  0  0
   20.2052  107.8473 -102.1271 C   0  0  0  0  0  0  0  0  0  0  0  0
   18.2314  106.9618  -97.9029 O   0  0  0  0  0  0  0  0  0  0  0  0
   20.2379  108.7703  -98.0398 N   0  0  0  0  0  0  0  0  0  0  0  0
   22.1024  109.3522 -102.5075 N   0  0  0  0  0  0  0  0  0  0  0  0
   21.1432  108.7289 -101.6458 C   0  0  0  0  0  0  0  0  0  0  0  0
   21.1268  108.9920 -100.2989 C   0  0  0  0  0  0  0  0  0  0  0  0
   23.4093  109.2646 -102.3699 N   0  0  0  0  0  0  0  0  0  0  0  0
   20.6419  109.3759  -95.0940 C   0  0  0  0  0  0  0  0  0  0  0  0
   22.1464  109.1413  -94.9083 C   0  0  1  0  0  0  0  0  0  0  0  0
   22.6507  108.5457  -96.1777 C   0  0  0  0  0  0  0  0  0  0  0  0
   22.4782  109.5143  -97.3359 C   0  0  0  0  0  0  0  0  0  0  0  0
   24.0308  109.9631 -103.3406 C   0  0  0  0  0  0  0  0  0  0  0  0
   23.0478  110.5272 -104.1416 C   0  0  0  0  0  0  0  0  0  0  0  0
   21.8357  110.1129 -103.5757 C   0  0  0  0  0  0  0  0  0  0  0  0
   21.7834  111.7679 -105.9407 C   0  0  0  0  0  0  0  0  0  0  0  0
   19.4952  112.5196 -105.2644 C   0  0  0  0  0  0  0  0  0  0  0  0
   19.3008  107.2626 -101.2977 C   0  0  0  0  0  0  0  0  0  0  0  0
   25.6626  111.4105 -104.1172 F   0  0  0  0  0  0  0  0  0  0  0  0
   24.1950  111.7290 -105.7700 O   0  0  0  0  0  0  0  0  0  0  0  0
   26.2305  110.0406 -102.4476 F   0  0  0  0  0  0  0  0  0  0  0  0
   25.8783  109.1910 -104.5279 F   0  0  0  0  0  0  0  0  0  0  0  0
   22.8059  110.2739  -94.5044 O   0  0  0  0  0  0  0  0  0  0  0  0
   18.3257  106.8608  -99.1293 C   0  0  0  0  0  0  0  0  0  0  0  0
   20.5108  110.3784  -96.1926 C   0  0  0  0  0  0  0  0  0  0  0  0
   20.5562  110.5297 -104.1741 C   0  0  0  0  0  0  0  0  0  0  0  0
   20.7764  111.9097 -104.8106 C   0  0  1  0  0  0  0  0  0  0  0  0
   23.0760  111.3747 -105.3276 C   0  0  0  0  0  0  0  0  0  0  0  0
   21.4059  112.8081 -103.7672 C   0  0  0  0  0  0  0  0  0  0  0  0
   25.4781  110.1560 -103.5943 C   0  0  1  0  0  0  0  0  0  0  0  0
  1  7  1  1
  1 15  1  0
  1 28  1  0
  2  3  2  0
  2  7  1  0
 10  2  1  0
 21  3  1  0
  3 27  1  0
 27  4  1  0
  9  5  1  0
  5 21  2  0
 27  6  2  0
  8  9  1  0
  8 11  1  0
 18  8  1  0
  9 10  2  0
 16 11  2  0
 12 13  1  0
 28 12  1  0
 14 13  1  0
 13 26  1  6
 15 14  1  0
 17 16  1  0
 16 33  1  0
 17 18  2  0
 31 17  1  0
 18 29  1  0
 19 30  1  0
 19 31  1  0
 30 20  1  6
 33 22  1  6
 31 23  2  0
 33 24  1  0
 33 25  1  0
 29 30  1  0
 30 32  1  0
M  END
$$$$
