
     RDKit          3D

 33 36  0  0  0  0  0  0  0  0999 V2000
   20.8482  109.6838  -97.7986 C   0  0  2  0  0  0  0  0  0  0  0  0
   20.0223  108.1945  -99.6524 C   0  0  0  0  0  0  0  0  0  0  0  0
   19.2399  107.1763 -100.1012 C   0  0  0  0  0  0  0  0  0  0  0  0
   17.9884  105.0605  -99.7645 N   0  0  0  0  0  0  0  0  0  0  0  0
   19.6943  107.7591 -102.3896 C   0  0  0  0  0  0  0  0  0  0  0  0
   18.4263  106.4256  -98.0201 O   0  0  0  0  0  0  0  0  0  0  0  0
   20.1862  108.4830  -98.2917 N   0  0  0  0  0  0  0  0  0  0  0  0
   21.1549  109.6535 -102.9250 N   0  0  0  0  0  0  0  0  0  0  0  0
   20.4946  108.7999 -101.9835 C   0  0  0  0  0  0  0  0  0  0  0  0
   20.6390  108.9925 -100.6323 C   0  0  0  0  0  0  0  0  0  0  0  0
   20.6091  110.1266 -104.0262 N   0  0  0  0  0  0  0  0  0  0  0  0
   20.9592  108.9937  -95.4022 C   0  0  0  0  0  0  0  0  0  0  0  0
   22.4912  109.0312  -95.4681 C   0  0  1  0  0  0  0  0  0  0  0  0
   22.8749  108.6079  -96.8443 C   0  0  0  0  0  0  0  0  0  0  0  0
   22.3483  109.5889  -97.8787 C   0  0  0  0  0  0  0  0  0  0  0  0
   21.4914  110.8967 -104.6934 C   0  0  0  0  0  0  0  0  0  0  0  0
   22.6705  110.9077 -103.9616 C   0  0  0  0  0  0  0  0  0  0  0  0
   22.4124  110.1041 -102.8442 C   0  0  0  0  0  0  0  0  0  0  0  0
   25.0079  111.3399 -103.1104 C   0  0  0  0  0  0  0  0  0  0  0  0
   25.9303  109.5250 -101.6566 C   0  0  0  0  0  0  0  0  0  0  0  0
   19.0738  106.9564 -101.4850 C   0  0  0  0  0  0  0  0  0  0  0  0
   21.3917  112.9784 -105.7019 F   0  0  0  0  0  0  0  0  0  0  0  0
   24.1418  112.2313 -105.1845 O   0  0  0  0  0  0  0  0  0  0  0  0
   22.3189  111.3225 -106.8788 F   0  0  0  0  0  0  0  0  0  0  0  0
   20.0769  111.3101 -106.4955 F   0  0  0  0  0  0  0  0  0  0  0  0
   23.0016  110.2427  -95.0773 O   0  0  0  0  0  0  0  0  0  0  0  0
   18.5605  106.2567  -99.2352 C   0  0  0  0  0  0  0  0  0  0  0  0
   20.4767  110.0123  -96.3812 C   0  0  0  0  0  0  0  0  0  0  0  0
   23.4576  109.8848 -101.8301 C   0  0  0  0  0  0  0  0  0  0  0  0
   24.8128  109.9402 -102.5499 C   0  0  1  0  0  0  0  0  0  0  0  0
   23.9691  111.5432 -104.1500 C   0  0  0  0  0  0  0  0  0  0  0  0
   24.7510  108.9953 -103.7312 C   0  0  0  0  0  0  0  0  0  0  0  0
   21.3342  111.6343 -105.9691 C   0  0  1  0  0  0  0  0  0  0  0  0
  1  7  1  1
  1 15  1  0
  1 28  1  0
  2  3  2  0
  2  7  1  0
 10  2  1  0
 21  3  1  0
  3 27  1  0
 27  4  1  0
  9  5  1  0
  5 21  2  0
 27  6  2  0
  8  9  1  0
  8 11  1  0
 18  8  1  0
  9 10  2  0
 16 11  2  0
 12 13  1  0
 28 12  1  0
 14 13  1  0
 13 26  1  6
 15 14  1  0
 17 16  1  0
 16 33  1  0
 17 18  2  0
 31 17  1  0
 18 29  1  0
 19 30  1  0
 19 31  1  0
 30 20  1  1
 33 22  1  1
 31 23  2  0
 33 24  1  0
 33 25  1  0
 29 30  1  0
 30 32  1  0
M  END
$$$$
