
     RDKit          3D

 33 36  0  0  0  0  0  0  0  0999 V2000
   21.6611  109.2616  -97.4608 C   0  0  2  0  0  0  0  0  0  0  0  0
   20.3899  108.2363  -99.3764 C   0  0  0  0  0  0  0  0  0  0  0  0
   19.3157  107.5603  -99.8657 C   0  0  0  0  0  0  0  0  0  0  0  0
   17.7580  105.6650  -99.4954 N   0  0  0  0  0  0  0  0  0  0  0  0
   19.9453  108.0815 -102.1274 C   0  0  0  0  0  0  0  0  0  0  0  0
   18.0221  107.2592  -97.9183 O   0  0  0  0  0  0  0  0  0  0  0  0
   20.6358  108.3810  -98.0052 N   0  0  0  0  0  0  0  0  0  0  0  0
   21.9531  109.4108 -102.5855 N   0  0  0  0  0  0  0  0  0  0  0  0
   21.0441  108.7750 -101.6798 C   0  0  0  0  0  0  0  0  0  0  0  0
   21.2397  108.8363 -100.3227 C   0  0  0  0  0  0  0  0  0  0  0  0
   23.2656  109.3195 -102.5253 N   0  0  0  0  0  0  0  0  0  0  0  0
   21.0207  109.0081  -95.0614 C   0  0  0  0  0  0  0  0  0  0  0  0
   22.3942  108.3922  -94.7657 C   0  0  1  0  0  0  0  0  0  0  0  0
   22.7909  107.6196  -95.9765 C   0  0  0  0  0  0  0  0  0  0  0  0
   22.9502  108.5384  -97.1765 C   0  0  0  0  0  0  0  0  0  0  0  0
   23.8314  110.0327 -103.5191 C   0  0  0  0  0  0  0  0  0  0  0  0
   22.8050  110.6107 -104.2527 C   0  0  0  0  0  0  0  0  0  0  0  0
   21.6267  110.1890 -103.6242 C   0  0  0  0  0  0  0  0  0  0  0  0
   21.4413  111.8818 -105.9554 C   0  0  0  0  0  0  0  0  0  0  0  0
   19.1977  112.6254 -105.1359 C   0  0  0  0  0  0  0  0  0  0  0  0
   19.0907  107.4824 -101.2564 C   0  0  0  0  0  0  0  0  0  0  0  0
   25.5582  111.5610 -103.7265 F   0  0  0  0  0  0  0  0  0  0  0  0
   23.8586  111.8372 -105.9253 O   0  0  0  0  0  0  0  0  0  0  0  0
   26.0954  109.5099 -103.0256 F   0  0  0  0  0  0  0  0  0  0  0  0
   25.4467  109.8264 -105.1826 F   0  0  0  0  0  0  0  0  0  0  0  0
   23.3095  109.3282  -94.3571 O   0  0  0  0  0  0  0  0  0  0  0  0
   18.3670  106.8728  -99.0386 C   0  0  0  0  0  0  0  0  0  0  0  0
   21.2255  109.9516  -96.2001 C   0  0  0  0  0  0  0  0  0  0  0  0
   20.3157  110.6170 -104.1408 C   0  0  0  0  0  0  0  0  0  0  0  0
   20.5016  112.0067 -104.7668 C   0  0  1  0  0  0  0  0  0  0  0  0
   22.7663  111.4772 -105.4246 C   0  0  0  0  0  0  0  0  0  0  0  0
   21.1924  112.8874 -103.7474 C   0  0  0  0  0  0  0  0  0  0  0  0
   25.2620  110.2278 -103.8530 C   0  0  1  0  0  0  0  0  0  0  0  0
  1  7  1  1
  1 15  1  0
  1 28  1  0
  2  3  2  0
  2  7  1  0
 10  2  1  0
 21  3  1  0
  3 27  1  0
 27  4  1  0
  9  5  1  0
  5 21  2  0
 27  6  2  0
  8  9  1  0
  8 11  1  0
 18  8  1  0
  9 10  2  0
 16 11  2  0
 12 13  1  0
 28 12  1  0
 14 13  1  0
 13 26  1  6
 15 14  1  0
 17 16  1  0
 16 33  1  0
 17 18  2  0
 31 17  1  0
 18 29  1  0
 19 30  1  0
 19 31  1  0
 30 20  1  6
 33 22  1  6
 31 23  2  0
 33 24  1  0
 33 25  1  0
 29 30  1  0
 30 32  1  0
M  END
$$$$
