
     RDKit          3D

 33 36  0  0  0  0  0  0  0  0999 V2000
   21.5305  109.5136  -97.4246 C   0  0  2  0  0  0  0  0  0  0  0  0
   20.4704  108.2699  -99.3392 C   0  0  0  0  0  0  0  0  0  0  0  0
   19.5215  107.4356  -99.8431 C   0  0  0  0  0  0  0  0  0  0  0  0
   17.7669  105.6964  -99.6140 N   0  0  0  0  0  0  0  0  0  0  0  0
   20.2459  107.8769 -102.0933 C   0  0  0  0  0  0  0  0  0  0  0  0
   18.4757  106.8568  -97.8114 O   0  0  0  0  0  0  0  0  0  0  0  0
   20.5983  108.5356  -97.9701 N   0  0  0  0  0  0  0  0  0  0  0  0
   22.1103  109.4094 -102.5226 N   0  0  0  0  0  0  0  0  0  0  0  0
   21.2201  108.7288 -101.6308 C   0  0  0  0  0  0  0  0  0  0  0  0
   21.3090  108.9048 -100.2725 C   0  0  0  0  0  0  0  0  0  0  0  0
   23.4247  109.3470 -102.4695 N   0  0  0  0  0  0  0  0  0  0  0  0
   21.4419  108.7156  -95.0609 C   0  0  0  0  0  0  0  0  0  0  0  0
   22.9366  108.3766  -95.1252 C   0  0  1  0  0  0  0  0  0  0  0  0
   23.2189  107.9311  -96.5187 C   0  0  0  0  0  0  0  0  0  0  0  0
   22.9617  109.0550  -97.5088 C   0  0  0  0  0  0  0  0  0  0  0  0
   23.9697  110.0992 -103.4461 C   0  0  0  0  0  0  0  0  0  0  0  0
   22.9270  110.6724 -104.1605 C   0  0  0  0  0  0  0  0  0  0  0  0
   21.7615  110.2069 -103.5391 C   0  0  0  0  0  0  0  0  0  0  0  0
   21.5270  111.9558 -105.8241 C   0  0  0  0  0  0  0  0  0  0  0  0
   19.2703  112.6251 -104.9770 C   0  0  0  0  0  0  0  0  0  0  0  0
   19.4078  107.2372 -101.2354 C   0  0  0  0  0  0  0  0  0  0  0  0
   25.6141  111.6899 -103.8014 F   0  0  0  0  0  0  0  0  0  0  0  0
   23.9449  111.9667 -105.8039 O   0  0  0  0  0  0  0  0  0  0  0  0
   26.2483  109.7643 -102.8649 F   0  0  0  0  0  0  0  0  0  0  0  0
   25.6273  109.7990 -105.0528 F   0  0  0  0  0  0  0  0  0  0  0  0
   23.7256  109.4069  -94.6814 O   0  0  0  0  0  0  0  0  0  0  0  0
   18.6038  106.6937  -99.0280 C   0  0  0  0  0  0  0  0  0  0  0  0
   21.2361  109.8627  -95.9940 C   0  0  0  0  0  0  0  0  0  0  0  0
   20.4387  110.6177 -104.0395 C   0  0  0  0  0  0  0  0  0  0  0  0
   20.5898  112.0274 -104.6292 C   0  0  1  0  0  0  0  0  0  0  0  0
   22.8633  111.5683 -105.3089 C   0  0  0  0  0  0  0  0  0  0  0  0
   21.2643  112.8967 -103.5893 C   0  0  0  0  0  0  0  0  0  0  0  0
   25.3940  110.3362 -103.7800 C   0  0  1  0  0  0  0  0  0  0  0  0
  1  7  1  1
  1 15  1  0
  1 28  1  0
  2  3  2  0
  2  7  1  0
 10  2  1  0
 21  3  1  0
  3 27  1  0
 27  4  1  0
  9  5  1  0
  5 21  2  0
 27  6  2  0
  8  9  1  0
  8 11  1  0
 18  8  1  0
  9 10  2  0
 16 11  2  0
 12 13  1  0
 28 12  1  0
 14 13  1  0
 13 26  1  6
 15 14  1  0
 17 16  1  0
 16 33  1  0
 17 18  2  0
 31 17  1  0
 18 29  1  0
 19 30  1  0
 19 31  1  0
 30 20  1  6
 33 22  1  6
 31 23  2  0
 33 24  1  0
 33 25  1  0
 29 30  1  0
 30 32  1  0
M  END
$$$$
