
     RDKit          3D

 33 36  0  0  0  0  0  0  0  0999 V2000
   21.9629  108.5436  -97.6525 C   0  0  2  0  0  0  0  0  0  0  0  0
   20.3969  107.9602  -99.5350 C   0  0  0  0  0  0  0  0  0  0  0  0
   19.3105  107.2939 -100.0105 C   0  0  0  0  0  0  0  0  0  0  0  0
   17.7130  105.4238  -99.6840 N   0  0  0  0  0  0  0  0  0  0  0  0
   19.8566  107.9004 -102.2726 C   0  0  0  0  0  0  0  0  0  0  0  0
   18.1429  106.8727  -98.0065 O   0  0  0  0  0  0  0  0  0  0  0  0
   20.6900  108.0577  -98.1690 N   0  0  0  0  0  0  0  0  0  0  0  0
   21.8385  109.2606 -102.7525 N   0  0  0  0  0  0  0  0  0  0  0  0
   20.9660  108.5859 -101.8391 C   0  0  0  0  0  0  0  0  0  0  0  0
   21.2089  108.6001 -100.4883 C   0  0  0  0  0  0  0  0  0  0  0  0
   23.1527  109.1763 -102.7423 N   0  0  0  0  0  0  0  0  0  0  0  0
   21.0143  110.0120  -95.8705 C   0  0  0  0  0  0  0  0  0  0  0  0
   21.7135  109.1597  -94.8038 C   0  0  1  0  0  0  0  0  0  0  0  0
   21.7204  107.7574  -95.3075 C   0  0  0  0  0  0  0  0  0  0  0  0
   22.5329  107.6460  -96.5870 C   0  0  0  0  0  0  0  0  0  0  0  0
   23.6786  109.9292 -103.7287 C   0  0  0  0  0  0  0  0  0  0  0  0
   22.6234  110.5264 -104.4037 C   0  0  0  0  0  0  0  0  0  0  0  0
   21.4708  110.0739 -103.7497 C   0  0  0  0  0  0  0  0  0  0  0  0
   21.1925  111.8491 -106.0093 C   0  0  0  0  0  0  0  0  0  0  0  0
   18.9754  112.5467 -105.0839 C   0  0  0  0  0  0  0  0  0  0  0  0
   19.0371  107.2640 -101.3944 C   0  0  0  0  0  0  0  0  0  0  0  0
   25.8912  109.5780 -103.1442 F   0  0  0  0  0  0  0  0  0  0  0  0
   23.6096  111.8204 -106.0666 O   0  0  0  0  0  0  0  0  0  0  0  0
   25.4048  109.5848 -105.3237 F   0  0  0  0  0  0  0  0  0  0  0  0
   25.3171  111.5291 -104.1467 F   0  0  0  0  0  0  0  0  0  0  0  0
   22.9474  109.6541  -94.4662 O   0  0  0  0  0  0  0  0  0  0  0  0
   18.3959  106.5700  -99.1759 C   0  0  0  0  0  0  0  0  0  0  0  0
   21.8703  109.9333  -97.0912 C   0  0  0  0  0  0  0  0  0  0  0  0
   20.1397  110.5111 -104.2034 C   0  0  0  0  0  0  0  0  0  0  0  0
   20.2952  111.9240 -104.7843 C   0  0  1  0  0  0  0  0  0  0  0  0
   22.5379  111.4348 -105.5410 C   0  0  0  0  0  0  0  0  0  0  0  0
   21.0170  112.7719 -103.7584 C   0  0  0  0  0  0  0  0  0  0  0  0
   25.0953  110.1464 -104.1058 C   0  0  1  0  0  0  0  0  0  0  0  0
  1  7  1  1
  1 15  1  0
  1 28  1  0
  2  3  2  0
  2  7  1  0
 10  2  1  0
 21  3  1  0
  3 27  1  0
 27  4  1  0
  9  5  1  0
  5 21  2  0
 27  6  2  0
  8  9  1  0
  8 11  1  0
 18  8  1  0
  9 10  2  0
 16 11  2  0
 12 13  1  0
 28 12  1  0
 14 13  1  0
 13 26  1  6
 15 14  1  0
 17 16  1  0
 16 33  1  0
 17 18  2  0
 31 17  1  0
 18 29  1  0
 19 30  1  0
 19 31  1  0
 30 20  1  6
 33 22  1  1
 31 23  2  0
 33 24  1  0
 33 25  1  0
 29 30  1  0
 30 32  1  0
M  END
$$$$
