
     RDKit          3D

 33 36  0  0  0  0  0  0  0  0999 V2000
   22.3427  107.2807  -97.8426 C   0  0  2  0  0  0  0  0  0  0  0  0
   20.4681  107.8717  -99.4153 C   0  0  0  0  0  0  0  0  0  0  0  0
   19.1779  107.7658  -99.8329 C   0  0  0  0  0  0  0  0  0  0  0  0
   17.4342  106.0046  -99.9498 N   0  0  0  0  0  0  0  0  0  0  0  0
   19.5878  109.2662 -101.6669 C   0  0  0  0  0  0  0  0  0  0  0  0
   17.9609  106.9699  -97.9777 O   0  0  0  0  0  0  0  0  0  0  0  0
   20.9502  107.2283  -98.2685 N   0  0  0  0  0  0  0  0  0  0  0  0
   21.8125  110.2378 -102.0068 N   0  0  0  0  0  0  0  0  0  0  0  0
   20.9002  109.4040 -101.2832 C   0  0  0  0  0  0  0  0  0  0  0  0
   21.3075  108.7080 -100.1726 C   0  0  0  0  0  0  0  0  0  0  0  0
   22.7375  110.9978 -101.4579 N   0  0  0  0  0  0  0  0  0  0  0  0
   22.0432  109.0189  -96.0761 C   0  0  0  0  0  0  0  0  0  0  0  0
   22.4937  108.0085  -95.0135 C   0  0  1  0  0  0  0  0  0  0  0  0
   22.0098  106.6708  -95.4567 C   0  0  0  0  0  0  0  0  0  0  0  0
   22.6565  106.2700  -96.7723 C   0  0  0  0  0  0  0  0  0  0  0  0
   23.4286  111.6564 -102.4093 C   0  0  0  0  0  0  0  0  0  0  0  0
   22.9019  111.2847 -103.6383 C   0  0  0  0  0  0  0  0  0  0  0  0
   21.8759  110.3809 -103.3358 C   0  0  0  0  0  0  0  0  0  0  0  0
   22.4248  111.0014 -106.1014 C   0  0  0  0  0  0  0  0  0  0  0  0
   20.0669  110.3538 -106.6295 C   0  0  0  0  0  0  0  0  0  0  0  0
   18.7328  108.4711 -100.9710 C   0  0  0  0  0  0  0  0  0  0  0  0
   24.0821  113.8728 -102.5541 F   0  0  0  0  0  0  0  0  0  0  0  0
   24.1258  112.4755 -105.2182 O   0  0  0  0  0  0  0  0  0  0  0  0
   25.0927  112.6142 -101.0110 F   0  0  0  0  0  0  0  0  0  0  0  0
   25.5287  112.2565 -103.2145 F   0  0  0  0  0  0  0  0  0  0  0  0
   23.8406  108.0777  -94.7644 O   0  0  0  0  0  0  0  0  0  0  0  0
   18.2007  106.9376  -99.1879 C   0  0  0  0  0  0  0  0  0  0  0  0
   22.7455  108.6360  -97.3368 C   0  0  0  0  0  0  0  0  0  0  0  0
   21.0828  109.7697 -104.4157 C   0  0  0  0  0  0  0  0  0  0  0  0
   21.0183  110.7838 -105.5668 C   0  0  1  0  0  0  0  0  0  0  0  0
   23.2100  111.6421 -105.0178 C   0  0  0  0  0  0  0  0  0  0  0  0
   20.5525  112.1064 -104.9960 C   0  0  0  0  0  0  0  0  0  0  0  0
   24.5515  112.6143 -102.2764 C   0  0  1  0  0  0  0  0  0  0  0  0
  1  7  1  1
  1 15  1  0
  1 28  1  0
  2  3  2  0
  2  7  1  0
 10  2  1  0
 21  3  1  0
  3 27  1  0
 27  4  1  0
  9  5  1  0
  5 21  2  0
 27  6  2  0
  8  9  1  0
  8 11  1  0
 18  8  1  0
  9 10  2  0
 16 11  2  0
 12 13  1  0
 28 12  1  0
 14 13  1  0
 13 26  1  6
 15 14  1  0
 17 16  1  0
 16 33  1  0
 17 18  2  0
 31 17  1  0
 18 29  1  0
 19 30  1  0
 19 31  1  0
 30 20  1  6
 33 22  1  6
 31 23  2  0
 33 24  1  0
 33 25  1  0
 29 30  1  0
 30 32  1  0
M  END
$$$$
