
     RDKit          3D

 43 45  0  0  0  0  0  0  0  0999 V2000
    2.2214  -17.6056   34.2662 C   0  0  0  0  0  0  0  0  0  0  0  0
    1.9507  -17.9027   35.6250 C   0  0  0  0  0  0  0  0  0  0  0  0
    0.8529  -18.6050   36.0360 C   0  0  0  0  0  0  0  0  0  0  0  0
    0.0218  -19.0047   35.0125 C   0  0  0  0  0  0  0  0  0  0  0  0
    0.2517  -18.7310   33.6490 C   0  0  0  0  0  0  0  0  0  0  0  0
   -2.0360  -17.3226   29.1824 O   0  0  0  0  0  0  0  0  0  0  0  0
   -1.5262  -17.2124   30.3988 C   0  0  0  0  0  0  0  0  0  0  0  0
   -0.2686  -16.4416   30.4525 C   0  0  0  0  0  0  0  0  0  0  0  0
    0.1840  -15.5147   31.3525 C   0  0  0  0  0  0  0  0  0  0  0  0
    1.4319  -14.9669   31.2237 C   0  0  0  0  0  0  0  0  0  0  0  0
    2.2103  -14.0156   32.0619 C   0  0  0  0  0  0  0  0  0  0  0  0
    3.4345  -14.7311   32.6707 C   0  0  0  0  0  0  0  0  0  0  0  0
    3.1577  -15.2859   34.0248 C   0  0  0  0  0  0  0  0  0  0  0  0
    3.4807  -16.7778   34.1671 C   0  0  0  0  0  0  0  0  0  0  0  0
   -0.8950  -19.2567   32.8619 C   0  0  0  0  0  0  0  0  0  0  0  0
   -2.0413  -18.2840   32.7027 C   0  0  1  0  0  0  0  0  0  0  0  0
   -1.9999  -17.1884   33.7210 C   0  0  0  0  0  0  0  0  0  0  0  0
   -3.2372  -16.5906   34.0653 N   0  0  0  0  0  4  0  0  0  0  0  0
   -4.4148  -17.0959   33.3493 C   0  0  2  0  0  0  0  0  0  0  0  0
   -4.5313  -18.4858   33.8661 C   0  0  0  0  0  0  0  0  0  0  0  0
   -5.1726  -18.7159   35.1380 N   0  0  0  0  0  0  0  0  0  0  0  0
   -4.4709  -19.4609   36.1918 C   0  0  0  0  0  0  0  0  0  0  0  0
   -5.3830  -19.6907   37.3479 C   0  0  1  0  0  0  0  0  0  0  0  0
   -5.2700  -18.4873   38.2794 C   0  0  0  0  0  0  0  0  0  0  0  0
   -6.8141  -19.8251   36.9556 C   0  0  0  0  0  0  0  0  0  0  0  0
   -4.1151  -19.5143   33.2935 O   0  0  0  0  0  0  0  0  0  0  0  0
   -4.1668  -17.1248   31.8941 C   0  0  0  0  0  0  0  0  0  0  0  0
   -5.1243  -16.5787   30.9198 C   0  0  0  0  0  0  0  0  0  0  0  0
   -5.0395  -16.8927   29.4861 C   0  0  0  0  0  0  0  0  0  0  0  0
   -5.7403  -15.9183   28.5844 C   0  0  0  0  0  0  0  0  0  0  0  0
   -2.3199  -17.8721   31.3557 N   0  0  0  0  0  0  0  0  0  0  0  0
    1.3746  -18.0194   33.2692 C   0  0  0  0  0  0  0  0  0  0  0  0
    2.2473  -15.3720   30.1370 C   0  0  0  0  0  0  0  0  0  0  0  0
    1.8645  -16.2837   29.2022 C   0  0  0  0  0  0  0  0  0  0  0  0
    2.6881  -16.6835   28.1126 N   0  0  0  0  0  0  0  0  0  0  0  0
    2.8645  -15.7286   27.0495 C   0  0  0  0  0  0  0  0  0  0  0  0
    3.0316  -14.3149   27.4815 C   0  0  0  0  0  0  0  0  0  0  0  0
    3.1826  -13.3215   26.3761 C   0  0  0  0  0  0  0  0  0  0  0  0
    3.4357  -18.2316   28.0443 S   0  0  2  0  0  6  0  0  0  0  0  0
    3.0443  -19.0917   29.2142 O   0  0  0  0  0  0  0  0  0  0  0  0
    5.2054  -18.1305   28.0616 C   0  0  0  0  0  0  0  0  0  0  0  0
    2.9838  -18.9552   26.8134 O   0  0  0  0  0  0  0  0  0  0  0  0
    0.6144  -16.7906   29.3919 C   0  0  0  0  0  0  0  0  0  0  0  0
  1  2  2  0
 14  1  1  0
  1 32  1  0
  2  3  1  0
  3  4  2  0
  5  4  1  0
  5 15  1  0
 32  5  2  0
  7  6  2  0
  8  7  1  0
  7 31  1  0
  9  8  1  0
  8 43  2  0
 10  9  2  0
 11 10  1  0
 10 33  1  0
 12 11  1  0
 13 12  1  0
 13 14  1  0
 15 16  1  0
 16 17  1  1
 16 31  1  0
 17 18  1  0
 18 19  1  0
 19 20  1  0
 19 27  1  6
 20 21  1  0
 20 26  2  0
 21 22  1  0
 22 23  1  0
 23 24  1  1
 23 25  1  0
 27 28  1  0
 28 29  1  0
 29 30  1  0
 33 34  2  0
 34 35  1  0
 34 43  1  0
 35 36  1  0
 35 39  1  0
 36 37  1  0
 37 38  1  0
 39 40  2  0
 39 41  1  6
 39 42  2  0
M  CHG  1  18   1
M  END
$$$$
