
     RDKit          3D

 43 45  0  0  0  0  0  0  0  0999 V2000
   -3.0438  -14.8343   29.1648 C   0  0  0  0  0  0  0  0  0  0  0  0
   -4.3967  -14.4569   29.3530 C   0  0  0  0  0  0  0  0  0  0  0  0
   -4.9898  -14.3751   30.5813 C   0  0  0  0  0  0  0  0  0  0  0  0
   -4.1581  -14.6924   31.6329 C   0  0  0  0  0  0  0  0  0  0  0  0
   -2.8082  -15.0730   31.4917 C   0  0  0  0  0  0  0  0  0  0  0  0
    0.8571  -18.3487   33.2245 O   0  0  0  0  0  0  0  0  0  0  0  0
   -0.2110  -17.9235   32.5689 C   0  0  0  0  0  0  0  0  0  0  0  0
   -0.0366  -17.8832   31.1038 C   0  0  0  0  0  0  0  0  0  0  0  0
   -0.8836  -18.2254   30.0843 C   0  0  0  0  0  0  0  0  0  0  0  0
   -0.5150  -18.0434   28.7786 C   0  0  0  0  0  0  0  0  0  0  0  0
   -1.2283  -18.2461   27.4887 C   0  0  0  0  0  0  0  0  0  0  0  0
   -1.4683  -16.8857   26.8009 C   0  0  0  0  0  0  0  0  0  0  0  0
   -2.7952  -16.3002   27.1388 C   0  0  0  0  0  0  0  0  0  0  0  0
   -2.7261  -14.8709   27.6888 C   0  0  0  0  0  0  0  0  0  0  0  0
   -2.2682  -15.4054   32.8367 C   0  0  0  0  0  0  0  0  0  0  0  0
   -2.4679  -16.8454   33.2512 C   0  0  1  0  0  0  0  0  0  0  0  0
   -3.5407  -17.5202   32.4557 C   0  0  0  0  0  0  0  0  0  0  0  0
   -4.2207  -18.5930   33.0828 N   0  0  0  0  0  4  0  0  0  0  0  0
   -3.7346  -18.9684   34.4162 C   0  0  2  0  0  0  0  0  0  0  0  0
   -4.9809  -19.4082   35.0987 C   0  0  0  0  0  0  0  0  0  0  0  0
   -5.8093  -20.4140   34.4792 N   0  0  0  0  0  0  0  0  0  0  0  0
   -6.2776  -21.5658   35.2614 C   0  0  0  0  0  0  0  0  0  0  0  0
   -6.5287  -22.7262   34.3604 C   0  0  1  0  0  0  0  0  0  0  0  0
   -8.0044  -22.7066   33.9724 C   0  0  0  0  0  0  0  0  0  0  0  0
   -5.7307  -22.6833   33.1030 C   0  0  0  0  0  0  0  0  0  0  0  0
   -5.4028  -18.9808   36.1935 O   0  0  0  0  0  0  0  0  0  0  0  0
   -3.1716  -17.7956   35.1145 C   0  0  0  0  0  0  0  0  0  0  0  0
   -2.6386  -17.8738   36.4835 C   0  0  0  0  0  0  0  0  0  0  0  0
   -3.2608  -17.1516   37.6027 C   0  0  0  0  0  0  0  0  0  0  0  0
   -2.5061  -17.2252   38.8983 C   0  0  0  0  0  0  0  0  0  0  0  0
   -1.2652  -17.6052   33.4453 N   0  0  0  0  0  0  0  0  0  0  0  0
   -2.2403  -15.1429   30.2332 C   0  0  0  0  0  0  0  0  0  0  0  0
    0.7636  -17.4988   28.4989 C   0  0  0  0  0  0  0  0  0  0  0  0
    1.6594  -17.1391   29.4579 C   0  0  0  0  0  0  0  0  0  0  0  0
    2.9423  -16.5951   29.1690 N   0  0  0  0  0  0  0  0  0  0  0  0
    3.2474  -15.3126   29.7482 C   0  0  0  0  0  0  0  0  0  0  0  0
    4.2635  -15.3274   30.8346 C   0  0  0  0  0  0  0  0  0  0  0  0
    5.1653  -14.1376   30.8837 C   0  0  0  0  0  0  0  0  0  0  0  0
    4.0825  -17.4082   28.1695 S   0  0  2  0  0  6  0  0  0  0  0  0
    5.3682  -17.6825   28.8998 O   0  0  0  0  0  0  0  0  0  0  0  0
    4.5108  -16.4692   26.7283 C   0  0  0  0  0  0  0  0  0  0  0  0
    3.5331  -18.7396   27.7592 O   0  0  0  0  0  0  0  0  0  0  0  0
    1.2277  -17.3437   30.7337 C   0  0  0  0  0  0  0  0  0  0  0  0
  1  2  2  0
 14  1  1  0
  1 32  1  0
  2  3  1  0
  3  4  2  0
  5  4  1  0
  5 15  1  0
 32  5  2  0
  7  6  2  0
  8  7  1  0
  7 31  1  0
  9  8  1  0
  8 43  2  0
 10  9  2  0
 11 10  1  0
 10 33  1  0
 12 11  1  0
 13 12  1  0
 13 14  1  0
 15 16  1  0
 16 17  1  6
 16 31  1  0
 17 18  1  0
 18 19  1  0
 19 20  1  0
 19 27  1  1
 20 21  1  0
 20 26  2  0
 21 22  1  0
 22 23  1  0
 23 24  1  6
 23 25  1  0
 27 28  1  0
 28 29  1  0
 29 30  1  0
 33 34  2  0
 34 35  1  0
 34 43  1  0
 35 36  1  0
 35 39  1  0
 36 37  1  0
 37 38  1  0
 39 40  2  0
 39 41  1  6
 39 42  2  0
M  CHG  1  18   1
M  END
$$$$
