
     RDKit          3D

 43 45  0  0  0  0  0  0  0  0999 V2000
   -3.0494  -14.2637   29.8827 C   0  0  0  0  0  0  0  0  0  0  0  0
   -4.3714  -13.8217   30.1373 C   0  0  0  0  0  0  0  0  0  0  0  0
   -5.0049  -13.9987   31.3351 C   0  0  0  0  0  0  0  0  0  0  0  0
   -4.2472  -14.6482   32.2848 C   0  0  0  0  0  0  0  0  0  0  0  0
   -2.9302  -15.1048   32.0748 C   0  0  0  0  0  0  0  0  0  0  0  0
    0.3669  -19.0399   32.9757 O   0  0  0  0  0  0  0  0  0  0  0  0
   -0.6332  -18.3648   32.4321 C   0  0  0  0  0  0  0  0  0  0  0  0
   -0.3963  -17.9712   31.0294 C   0  0  0  0  0  0  0  0  0  0  0  0
   -1.2272  -17.9635   29.9415 C   0  0  0  0  0  0  0  0  0  0  0  0
   -0.7914  -17.4919   28.7326 C   0  0  0  0  0  0  0  0  0  0  0  0
   -1.4661  -17.2939   27.4215 C   0  0  0  0  0  0  0  0  0  0  0  0
   -1.5603  -15.7874   27.1006 C   0  0  0  0  0  0  0  0  0  0  0  0
   -2.8448  -15.1854   27.5537 C   0  0  0  0  0  0  0  0  0  0  0  0
   -2.6759  -13.9548   28.4523 C   0  0  0  0  0  0  0  0  0  0  0  0
   -2.4761  -15.8159   33.2992 C   0  0  0  0  0  0  0  0  0  0  0  0
   -2.8153  -17.2888   33.3278 C   0  0  1  0  0  0  0  0  0  0  0  0
   -3.9086  -17.6370   32.3673 C   0  0  0  0  0  0  0  0  0  0  0  0
   -4.4001  -18.9647   32.4143 N   0  0  0  0  0  4  0  0  0  0  0  0
   -4.5192  -19.5575   33.7520 C   0  0  2  0  0  0  0  0  0  0  0  0
   -4.8097  -18.3721   34.6023 C   0  0  0  0  0  0  0  0  0  0  0  0
   -4.4725  -18.4081   36.0047 N   0  0  0  0  0  0  0  0  0  0  0  0
   -5.3799  -17.8135   36.9952 C   0  0  0  0  0  0  0  0  0  0  0  0
   -6.3787  -16.9420   36.3137 C   0  0  1  0  0  0  0  0  0  0  0  0
   -7.7627  -17.3228   36.8316 C   0  0  0  0  0  0  0  0  0  0  0  0
   -6.1795  -15.4902   36.5831 C   0  0  0  0  0  0  0  0  0  0  0  0
   -5.3364  -17.3082   34.2153 O   0  0  0  0  0  0  0  0  0  0  0  0
   -3.2401  -20.1669   34.1674 C   0  0  0  0  0  0  0  0  0  0  0  0
   -3.0339  -21.6232   34.1990 C   0  0  0  0  0  0  0  0  0  0  0  0
   -3.0350  -22.3816   35.4584 C   0  0  0  0  0  0  0  0  0  0  0  0
   -2.7973  -23.8561   35.3070 C   0  0  0  0  0  0  0  0  0  0  0  0
   -1.6911  -18.1819   33.3421 N   0  0  0  0  0  0  0  0  0  0  0  0
   -2.3196  -14.9064   30.8504 C   0  0  0  0  0  0  0  0  0  0  0  0
    0.5396  -17.0160   28.6241 C   0  0  0  0  0  0  0  0  0  0  0  0
    1.4230  -16.9962   29.6589 C   0  0  0  0  0  0  0  0  0  0  0  0
    2.7586  -16.5189   29.5415 N   0  0  0  0  0  0  0  0  0  0  0  0
    3.2415  -15.6773   30.6052 C   0  0  0  0  0  0  0  0  0  0  0  0
    4.2953  -14.7007   30.2193 C   0  0  0  0  0  0  0  0  0  0  0  0
    3.8081  -13.3238   29.9061 C   0  0  0  0  0  0  0  0  0  0  0  0
    3.7593  -16.9071   28.1968 S   0  0  2  0  0  6  0  0  0  0  0  0
    5.1096  -17.4056   28.6324 O   0  0  0  0  0  0  0  0  0  0  0  0
    4.0519  -15.5107   27.1448 C   0  0  0  0  0  0  0  0  0  0  0  0
    3.1320  -18.0125   27.4048 O   0  0  0  0  0  0  0  0  0  0  0  0
    0.9237  -17.4759   30.8320 C   0  0  0  0  0  0  0  0  0  0  0  0
  1  2  2  0
 14  1  1  0
  1 32  1  0
  2  3  1  0
  3  4  2  0
  5  4  1  0
  5 15  1  0
 32  5  2  0
  7  6  2  0
  8  7  1  0
  7 31  1  0
  9  8  1  0
  8 43  2  0
 10  9  2  0
 11 10  1  0
 10 33  1  0
 12 11  1  0
 13 12  1  0
 13 14  1  0
 15 16  1  0
 16 17  1  6
 16 31  1  0
 17 18  1  0
 18 19  1  0
 19 20  1  0
 19 27  1  1
 20 21  1  0
 20 26  2  0
 21 22  1  0
 22 23  1  0
 23 24  1  1
 23 25  1  0
 27 28  1  0
 28 29  1  0
 29 30  1  0
 33 34  2  0
 34 35  1  0
 34 43  1  0
 35 36  1  0
 35 39  1  0
 36 37  1  0
 37 38  1  0
 39 40  2  0
 39 41  1  6
 39 42  2  0
M  CHG  1  18   1
M  END
$$$$
