
     RDKit          3D

 43 45  0  0  0  0  0  0  0  0999 V2000
   -2.2867  -14.1745   29.3492 C   0  0  0  0  0  0  0  0  0  0  0  0
   -3.6151  -13.7419   29.5868 C   0  0  0  0  0  0  0  0  0  0  0  0
   -4.2289  -13.8351   30.8041 C   0  0  0  0  0  0  0  0  0  0  0  0
   -3.4445  -14.3893   31.7918 C   0  0  0  0  0  0  0  0  0  0  0  0
   -2.1204  -14.8331   31.5999 C   0  0  0  0  0  0  0  0  0  0  0  0
    1.2761  -18.6108   32.7660 O   0  0  0  0  0  0  0  0  0  0  0  0
    0.2541  -18.0034   32.1845 C   0  0  0  0  0  0  0  0  0  0  0  0
    0.4640  -17.7193   30.7514 C   0  0  0  0  0  0  0  0  0  0  0  0
   -0.3809  -17.8174   29.6787 C   0  0  0  0  0  0  0  0  0  0  0  0
    0.0286  -17.4357   28.4295 C   0  0  0  0  0  0  0  0  0  0  0  0
   -0.6673  -17.3588   27.1168 C   0  0  0  0  0  0  0  0  0  0  0  0
   -0.7996  -15.8855   26.6771 C   0  0  0  0  0  0  0  0  0  0  0  0
   -2.0915  -15.2766   27.0991 C   0  0  0  0  0  0  0  0  0  0  0  0
   -1.9388  -13.9741   27.8933 C   0  0  0  0  0  0  0  0  0  0  0  0
   -1.6345  -15.4330   32.8707 C   0  0  0  0  0  0  0  0  0  0  0  0
   -1.9400  -16.9058   33.0227 C   0  0  1  0  0  0  0  0  0  0  0  0
   -3.0374  -17.3538   32.1095 C   0  0  0  0  0  0  0  0  0  0  0  0
   -3.5522  -18.6563   32.3219 N   0  0  0  0  0  4  0  0  0  0  0  0
   -3.9958  -18.9555   33.6889 C   0  0  2  0  0  0  0  0  0  0  0  0
   -3.9789  -17.6140   34.3314 C   0  0  0  0  0  0  0  0  0  0  0  0
   -5.0913  -17.2113   35.1572 N   0  0  0  0  0  0  0  0  0  0  0  0
   -5.0646  -15.9144   35.8465 C   0  0  0  0  0  0  0  0  0  0  0  0
   -6.2777  -15.1238   35.4932 C   0  0  1  0  0  0  0  0  0  0  0  0
   -5.8152  -13.7749   34.9497 C   0  0  0  0  0  0  0  0  0  0  0  0
   -7.1200  -15.7676   34.4463 C   0  0  0  0  0  0  0  0  0  0  0  0
   -3.0684  -16.7661   34.2259 O   0  0  0  0  0  0  0  0  0  0  0  0
   -3.0313  -19.8445   34.3666 C   0  0  0  0  0  0  0  0  0  0  0  0
   -3.2336  -21.2982   34.4657 C   0  0  0  0  0  0  0  0  0  0  0  0
   -2.5722  -22.1067   35.5003 C   0  0  0  0  0  0  0  0  0  0  0  0
   -2.8094  -23.5852   35.3929 C   0  0  0  0  0  0  0  0  0  0  0  0
   -0.7958  -17.7704   33.0923 N   0  0  0  0  0  0  0  0  0  0  0  0
   -1.5302  -14.7211   30.3547 C   0  0  0  0  0  0  0  0  0  0  0  0
    1.3469  -16.9417   28.2636 C   0  0  0  0  0  0  0  0  0  0  0  0
    2.2430  -16.8194   29.2804 C   0  0  0  0  0  0  0  0  0  0  0  0
    3.5658  -16.3245   29.1054 N   0  0  0  0  0  0  0  0  0  0  0  0
    3.9620  -15.2239   29.9449 C   0  0  0  0  0  0  0  0  0  0  0  0
    4.9582  -15.5514   31.0002 C   0  0  0  0  0  0  0  0  0  0  0  0
    5.3387  -14.4174   31.8950 C   0  0  0  0  0  0  0  0  0  0  0  0
    4.6497  -16.9870   27.9450 S   0  0  2  0  0  6  0  0  0  0  0  0
    5.8143  -17.6769   28.6003 O   0  0  0  0  0  0  0  0  0  0  0  0
    5.3329  -15.7513   26.8733 C   0  0  0  0  0  0  0  0  0  0  0  0
    3.9423  -18.0258   27.1306 O   0  0  0  0  0  0  0  0  0  0  0  0
    1.7698  -17.2135   30.4955 C   0  0  0  0  0  0  0  0  0  0  0  0
  1  2  2  0
 14  1  1  0
  1 32  1  0
  2  3  1  0
  3  4  2  0
  5  4  1  0
  5 15  1  0
 32  5  2  0
  7  6  2  0
  8  7  1  0
  7 31  1  0
  9  8  1  0
  8 43  2  0
 10  9  2  0
 11 10  1  0
 10 33  1  0
 12 11  1  0
 13 12  1  0
 13 14  1  0
 15 16  1  0
 16 17  1  6
 16 31  1  0
 17 18  1  0
 18 19  1  0
 19 20  1  0
 19 27  1  1
 20 21  1  0
 20 26  2  0
 21 22  1  0
 22 23  1  0
 23 24  1  6
 23 25  1  0
 27 28  1  0
 28 29  1  0
 29 30  1  0
 33 34  2  0
 34 35  1  0
 34 43  1  0
 35 36  1  0
 35 39  1  0
 36 37  1  0
 37 38  1  0
 39 40  2  0
 39 41  1  6
 39 42  2  0
M  CHG  1  18   1
M  END
$$$$
