
     RDKit          3D

 43 45  0  0  0  0  0  0  0  0999 V2000
   -2.6858  -14.3289   29.0228 C   0  0  0  0  0  0  0  0  0  0  0  0
   -4.0480  -13.9395   28.9928 C   0  0  0  0  0  0  0  0  0  0  0  0
   -4.8690  -13.9944   30.0838 C   0  0  0  0  0  0  0  0  0  0  0  0
   -4.2596  -14.4637   31.2268 C   0  0  0  0  0  0  0  0  0  0  0  0
   -2.9095  -14.8619   31.3016 C   0  0  0  0  0  0  0  0  0  0  0  0
    0.3353  -18.4308   33.2768 O   0  0  0  0  0  0  0  0  0  0  0  0
   -0.5828  -17.8971   32.4870 C   0  0  0  0  0  0  0  0  0  0  0  0
   -0.1257  -17.6797   31.1005 C   0  0  0  0  0  0  0  0  0  0  0  0
   -0.7589  -17.8682   29.9015 C   0  0  0  0  0  0  0  0  0  0  0  0
   -0.1420  -17.5356   28.7256 C   0  0  0  0  0  0  0  0  0  0  0  0
   -0.5906  -17.5559   27.3072 C   0  0  0  0  0  0  0  0  0  0  0  0
   -0.6868  -16.1142   26.7653 C   0  0  0  0  0  0  0  0  0  0  0  0
   -2.0520  -15.5378   26.9127 C   0  0  0  0  0  0  0  0  0  0  0  0
   -2.0863  -14.1905   27.6435 C   0  0  0  0  0  0  0  0  0  0  0  0
   -2.6435  -15.3744   32.6718 C   0  0  0  0  0  0  0  0  0  0  0  0
   -2.9255  -16.8485   32.8528 C   0  0  1  0  0  0  0  0  0  0  0  0
   -3.8249  -17.3883   31.7856 C   0  0  0  0  0  0  0  0  0  0  0  0
   -4.6681  -18.4674   32.1477 N   0  0  0  0  0  4  0  0  0  0  0  0
   -4.7529  -18.7612   33.5834 C   0  0  2  0  0  0  0  0  0  0  0  0
   -3.4220  -18.3196   34.0794 C   0  0  0  0  0  0  0  0  0  0  0  0
   -3.3216  -17.6983   35.3777 N   0  0  0  0  0  0  0  0  0  0  0  0
   -2.0032  -17.3731   35.9380 C   0  0  0  0  0  0  0  0  0  0  0  0
   -2.1474  -16.3754   37.0358 C   0  0  1  0  0  0  0  0  0  0  0  0
   -3.4393  -16.6879   37.7855 C   0  0  0  0  0  0  0  0  0  0  0  0
   -1.0318  -16.4154   38.0226 C   0  0  0  0  0  0  0  0  0  0  0  0
   -2.3404  -18.4331   33.4658 O   0  0  0  0  0  0  0  0  0  0  0  0
   -4.9126  -20.2115   33.8097 C   0  0  0  0  0  0  0  0  0  0  0  0
   -5.0656  -20.7877   35.1547 C   0  0  0  0  0  0  0  0  0  0  0  0
   -4.8239  -22.2129   35.4223 C   0  0  0  0  0  0  0  0  0  0  0  0
   -5.0115  -22.6268   36.8530 C   0  0  0  0  0  0  0  0  0  0  0  0
   -1.7866  -17.6605   33.1768 N   0  0  0  0  0  0  0  0  0  0  0  0
   -2.1073  -14.7908   30.1778 C   0  0  0  0  0  0  0  0  0  0  0  0
    1.1686  -16.9970   28.7699 C   0  0  0  0  0  0  0  0  0  0  0  0
    1.8614  -16.7851   29.9217 C   0  0  0  0  0  0  0  0  0  0  0  0
    3.1780  -16.2461   29.9577 N   0  0  0  0  0  0  0  0  0  0  0  0
    3.3237  -14.9295   30.5222 C   0  0  0  0  0  0  0  0  0  0  0  0
    3.5305  -13.8320   29.5395 C   0  0  0  0  0  0  0  0  0  0  0  0
    3.6886  -12.4679   30.1273 C   0  0  0  0  0  0  0  0  0  0  0  0
    4.5403  -17.1042   29.3510 S   0  0  2  0  0  6  0  0  0  0  0  0
    5.6064  -16.1718   28.8453 O   0  0  0  0  0  0  0  0  0  0  0  0
    4.1211  -18.1720   27.9996 C   0  0  0  0  0  0  0  0  0  0  0  0
    5.1624  -17.9053   30.4527 O   0  0  0  0  0  0  0  0  0  0  0  0
    1.1884  -17.1345   31.0534 C   0  0  0  0  0  0  0  0  0  0  0  0
  1  2  2  0
 14  1  1  0
  1 32  1  0
  2  3  1  0
  3  4  2  0
  5  4  1  0
  5 15  1  0
 32  5  2  0
  7  6  2  0
  8  7  1  0
  7 31  1  0
  9  8  1  0
  8 43  2  0
 10  9  2  0
 11 10  1  0
 10 33  1  0
 12 11  1  0
 13 12  1  0
 13 14  1  0
 15 16  1  0
 16 17  1  6
 16 31  1  0
 17 18  1  0
 18 19  1  0
 19 20  1  0
 19 27  1  6
 20 21  1  0
 20 26  2  0
 21 22  1  0
 22 23  1  0
 23 24  1  1
 23 25  1  0
 27 28  1  0
 28 29  1  0
 29 30  1  0
 33 34  2  0
 34 35  1  0
 34 43  1  0
 35 36  1  0
 35 39  1  0
 36 37  1  0
 37 38  1  0
 39 40  2  0
 39 41  1  6
 39 42  2  0
M  CHG  1  18   1
M  END
$$$$
