
     RDKit          3D

 43 45  0  0  0  0  0  0  0  0999 V2000
   -2.8349  -13.9279   29.2133 C   0  0  0  0  0  0  0  0  0  0  0  0
   -4.1300  -13.4135   29.4705 C   0  0  0  0  0  0  0  0  0  0  0  0
   -4.7034  -13.4083   30.7108 C   0  0  0  0  0  0  0  0  0  0  0  0
   -3.9131  -13.9491   31.7013 C   0  0  0  0  0  0  0  0  0  0  0  0
   -2.6211  -14.4720   31.4904 C   0  0  0  0  0  0  0  0  0  0  0  0
    0.6183  -18.3556   32.7518 O   0  0  0  0  0  0  0  0  0  0  0  0
   -0.3918  -17.7273   32.1717 C   0  0  0  0  0  0  0  0  0  0  0  0
   -0.2196  -17.5325   30.7188 C   0  0  0  0  0  0  0  0  0  0  0  0
   -1.1066  -17.6435   29.6819 C   0  0  0  0  0  0  0  0  0  0  0  0
   -0.7236  -17.3520   28.4004 C   0  0  0  0  0  0  0  0  0  0  0  0
   -1.4616  -17.3093   27.1093 C   0  0  0  0  0  0  0  0  0  0  0  0
   -1.5345  -15.8570   26.5928 C   0  0  0  0  0  0  0  0  0  0  0  0
   -2.7775  -15.1587   27.0230 C   0  0  0  0  0  0  0  0  0  0  0  0
   -2.5301  -13.8252   27.7377 C   0  0  0  0  0  0  0  0  0  0  0  0
   -2.1209  -15.0273   32.7759 C   0  0  0  0  0  0  0  0  0  0  0  0
   -2.4953  -16.4715   33.0199 C   0  0  1  0  0  0  0  0  0  0  0  0
   -3.6465  -16.9095   32.1701 C   0  0  0  0  0  0  0  0  0  0  0  0
   -4.4996  -17.9011   32.7137 N   0  0  0  0  0  4  0  0  0  0  0  0
   -4.3796  -18.1282   34.1590 C   0  0  2  0  0  0  0  0  0  0  0  0
   -3.4691  -19.3027   34.2236 C   0  0  0  0  0  0  0  0  0  0  0  0
   -3.1047  -19.8450   35.5100 N   0  0  0  0  0  0  0  0  0  0  0  0
   -1.9126  -20.6935   35.6399 C   0  0  0  0  0  0  0  0  0  0  0  0
   -1.7513  -21.1334   37.0548 C   0  0  1  0  0  0  0  0  0  0  0  0
   -2.8867  -20.5188   37.8683 C   0  0  0  0  0  0  0  0  0  0  0  0
   -1.8214  -22.6117   37.2270 C   0  0  0  0  0  0  0  0  0  0  0  0
   -2.9663  -19.8906   33.2436 O   0  0  0  0  0  0  0  0  0  0  0  0
   -5.6897  -18.4810   34.7413 C   0  0  0  0  0  0  0  0  0  0  0  0
   -6.0865  -18.0702   36.0971 C   0  0  0  0  0  0  0  0  0  0  0  0
   -7.3222  -18.5576   36.7270 C   0  0  0  0  0  0  0  0  0  0  0  0
   -7.1152  -19.4169   37.9404 C   0  0  0  0  0  0  0  0  0  0  0  0
   -1.3950  -17.3904   33.0995 N   0  0  0  0  0  0  0  0  0  0  0  0
   -2.0714  -14.4588   30.2220 C   0  0  0  0  0  0  0  0  0  0  0  0
    0.6113  -16.9380   28.1635 C   0  0  0  0  0  0  0  0  0  0  0  0
    1.5486  -16.8086   29.1414 C   0  0  0  0  0  0  0  0  0  0  0  0
    2.8878  -16.3946   28.8951 N   0  0  0  0  0  0  0  0  0  0  0  0
    3.8283  -16.5703   29.9711 C   0  0  0  0  0  0  0  0  0  0  0  0
    4.1251  -15.3487   30.7664 C   0  0  0  0  0  0  0  0  0  0  0  0
    5.0944  -15.5348   31.8876 C   0  0  0  0  0  0  0  0  0  0  0  0
    3.3764  -15.7048   27.3966 S   0  0  2  0  0  6  0  0  0  0  0  0
    2.3932  -14.6765   26.9093 O   0  0  0  0  0  0  0  0  0  0  0  0
    3.5212  -16.9147   26.1092 C   0  0  0  0  0  0  0  0  0  0  0  0
    4.6837  -14.9953   27.5714 O   0  0  0  0  0  0  0  0  0  0  0  0
    1.1002  -17.1109   30.3917 C   0  0  0  0  0  0  0  0  0  0  0  0
  1  2  2  0
 14  1  1  0
  1 32  1  0
  2  3  1  0
  3  4  2  0
  5  4  1  0
  5 15  1  0
 32  5  2  0
  7  6  2  0
  8  7  1  0
  7 31  1  0
  9  8  1  0
  8 43  2  0
 10  9  2  0
 11 10  1  0
 10 33  1  0
 12 11  1  0
 13 12  1  0
 13 14  1  0
 15 16  1  0
 16 17  1  6
 16 31  1  0
 17 18  1  0
 18 19  1  0
 19 20  1  0
 19 27  1  6
 20 21  1  0
 20 26  2  0
 21 22  1  0
 22 23  1  0
 23 24  1  1
 23 25  1  0
 27 28  1  0
 28 29  1  0
 29 30  1  0
 33 34  2  0
 34 35  1  0
 34 43  1  0
 35 36  1  0
 35 39  1  0
 36 37  1  0
 37 38  1  0
 39 40  2  0
 39 41  1  6
 39 42  2  0
M  CHG  1  18   1
M  END
$$$$
