
     RDKit          3D

 43 45  0  0  0  0  0  0  0  0999 V2000
   -2.8554  -13.7944   29.7778 C   0  0  0  0  0  0  0  0  0  0  0  0
   -4.1525  -13.3340   30.1148 C   0  0  0  0  0  0  0  0  0  0  0  0
   -4.7036  -13.4837   31.3562 C   0  0  0  0  0  0  0  0  0  0  0  0
   -3.8885  -14.1251   32.2630 C   0  0  0  0  0  0  0  0  0  0  0  0
   -2.5936  -14.5994   31.9711 C   0  0  0  0  0  0  0  0  0  0  0  0
    0.7199  -18.5539   32.7128 O   0  0  0  0  0  0  0  0  0  0  0  0
   -0.3087  -17.8773   32.2272 C   0  0  0  0  0  0  0  0  0  0  0  0
   -0.1652  -17.5102   30.8049 C   0  0  0  0  0  0  0  0  0  0  0  0
   -1.0690  -17.5120   29.7767 C   0  0  0  0  0  0  0  0  0  0  0  0
   -0.7129  -17.0657   28.5325 C   0  0  0  0  0  0  0  0  0  0  0  0
   -1.4744  -16.8828   27.2676 C   0  0  0  0  0  0  0  0  0  0  0  0
   -1.5761  -15.3810   26.9273 C   0  0  0  0  0  0  0  0  0  0  0  0
   -2.8205  -14.7576   27.4569 C   0  0  0  0  0  0  0  0  0  0  0  0
   -2.5784  -13.5139   28.3199 C   0  0  0  0  0  0  0  0  0  0  0  0
   -2.0630  -15.2945   33.1737 C   0  0  0  0  0  0  0  0  0  0  0  0
   -2.4135  -16.7630   33.2516 C   0  0  1  0  0  0  0  0  0  0  0  0
   -3.5737  -17.1156   32.3748 C   0  0  0  0  0  0  0  0  0  0  0  0
   -3.9052  -18.4894   32.2774 N   0  0  0  0  0  4  0  0  0  0  0  0
   -4.1445  -19.1830   33.5487 C   0  0  2  0  0  0  0  0  0  0  0  0
   -4.3498  -18.0541   34.4953 C   0  0  0  0  0  0  0  0  0  0  0  0
   -5.5728  -17.9838   35.2576 N   0  0  0  0  0  0  0  0  0  0  0  0
   -5.5548  -17.4642   36.6314 C   0  0  0  0  0  0  0  0  0  0  0  0
   -6.2992  -18.3861   37.5354 C   0  0  1  0  0  0  0  0  0  0  0  0
   -5.2758  -19.1507   38.3701 C   0  0  0  0  0  0  0  0  0  0  0  0
   -7.2140  -17.6816   38.4770 C   0  0  0  0  0  0  0  0  0  0  0  0
   -3.5443  -17.1238   34.7067 O   0  0  0  0  0  0  0  0  0  0  0  0
   -2.9547  -19.9596   33.9504 C   0  0  0  0  0  0  0  0  0  0  0  0
   -3.0047  -20.9966   34.9926 C   0  0  0  0  0  0  0  0  0  0  0  0
   -1.8256  -21.7998   35.3478 C   0  0  0  0  0  0  0  0  0  0  0  0
   -1.9679  -22.6071   36.6054 C   0  0  0  0  0  0  0  0  0  0  0  0
   -1.2996  -17.6677   33.2045 N   0  0  0  0  0  0  0  0  0  0  0  0
   -2.0668  -14.4284   30.7043 C   0  0  0  0  0  0  0  0  0  0  0  0
    0.6119  -16.6061   28.3245 C   0  0  0  0  0  0  0  0  0  0  0  0
    1.5646  -16.5782   29.2956 C   0  0  0  0  0  0  0  0  0  0  0  0
    2.8935  -16.1174   29.0783 N   0  0  0  0  0  0  0  0  0  0  0  0
    3.8962  -16.5708   30.0067 C   0  0  0  0  0  0  0  0  0  0  0  0
    3.5173  -17.7495   30.8315 C   0  0  0  0  0  0  0  0  0  0  0  0
    4.3147  -17.9399   32.0802 C   0  0  0  0  0  0  0  0  0  0  0  0
    3.3002  -15.0605   27.7830 S   0  0  2  0  0  6  0  0  0  0  0  0
    4.6458  -15.3890   27.1972 O   0  0  0  0  0  0  0  0  0  0  0  0
    3.3711  -13.3635   28.2902 C   0  0  0  0  0  0  0  0  0  0  0  0
    2.3041  -15.2148   26.6755 O   0  0  0  0  0  0  0  0  0  0  0  0
    1.1427  -17.0326   30.5086 C   0  0  0  0  0  0  0  0  0  0  0  0
  1  2  2  0
 14  1  1  0
  1 32  1  0
  2  3  1  0
  3  4  2  0
  5  4  1  0
  5 15  1  0
 32  5  2  0
  7  6  2  0
  8  7  1  0
  7 31  1  0
  9  8  1  0
  8 43  2  0
 10  9  2  0
 11 10  1  0
 10 33  1  0
 12 11  1  0
 13 12  1  0
 13 14  1  0
 15 16  1  0
 16 17  1  6
 16 31  1  0
 17 18  1  0
 18 19  1  0
 19 20  1  0
 19 27  1  1
 20 21  1  0
 20 26  2  0
 21 22  1  0
 22 23  1  0
 23 24  1  1
 23 25  1  0
 27 28  1  0
 28 29  1  0
 29 30  1  0
 33 34  2  0
 34 35  1  0
 34 43  1  0
 35 36  1  0
 35 39  1  0
 36 37  1  0
 37 38  1  0
 39 40  2  0
 39 41  1  1
 39 42  2  0
M  CHG  1  18   1
M  END
$$$$
