
     RDKit          3D

 43 45  0  0  0  0  0  0  0  0999 V2000
   -2.8298  -14.3604   28.9035 C   0  0  0  0  0  0  0  0  0  0  0  0
   -4.1582  -13.8971   29.0731 C   0  0  0  0  0  0  0  0  0  0  0  0
   -4.7862  -13.8441   30.2855 C   0  0  0  0  0  0  0  0  0  0  0  0
   -4.0160  -14.2820   31.3407 C   0  0  0  0  0  0  0  0  0  0  0  0
   -2.6924  -14.7509   31.2178 C   0  0  0  0  0  0  0  0  0  0  0  0
    0.6693  -18.3802   32.8591 O   0  0  0  0  0  0  0  0  0  0  0  0
   -0.3427  -17.8409   32.1984 C   0  0  0  0  0  0  0  0  0  0  0  0
   -0.1152  -17.7280   30.7444 C   0  0  0  0  0  0  0  0  0  0  0  0
   -0.9485  -17.9477   29.6807 C   0  0  0  0  0  0  0  0  0  0  0  0
   -0.5229  -17.7171   28.4003 C   0  0  0  0  0  0  0  0  0  0  0  0
   -1.2036  -17.7918   27.0795 C   0  0  0  0  0  0  0  0  0  0  0  0
   -1.3226  -16.3798   26.4684 C   0  0  0  0  0  0  0  0  0  0  0  0
   -2.6156  -15.7199   26.8008 C   0  0  0  0  0  0  0  0  0  0  0  0
   -2.4645  -14.3339   27.4384 C   0  0  0  0  0  0  0  0  0  0  0  0
   -2.2242  -15.1996   32.5558 C   0  0  0  0  0  0  0  0  0  0  0  0
   -2.5397  -16.6430   32.8760 C   0  0  1  0  0  0  0  0  0  0  0  0
   -3.6294  -17.1903   32.0088 C   0  0  0  0  0  0  0  0  0  0  0  0
   -4.6844  -17.8718   32.6639 N   0  0  0  0  0  4  0  0  0  0  0  0
   -4.5235  -18.0633   34.1104 C   0  0  2  0  0  0  0  0  0  0  0  0
   -4.2008  -19.5121   34.2073 C   0  0  0  0  0  0  0  0  0  0  0  0
   -3.1086  -19.9387   35.0480 N   0  0  0  0  0  0  0  0  0  0  0  0
   -1.8631  -20.4298   34.4436 C   0  0  0  0  0  0  0  0  0  0  0  0
   -1.6471  -21.8584   34.8095 C   0  0  1  0  0  0  0  0  0  0  0  0
   -0.5724  -21.9070   35.8918 C   0  0  0  0  0  0  0  0  0  0  0  0
   -2.8657  -22.5212   35.3533 C   0  0  0  0  0  0  0  0  0  0  0  0
   -4.7981  -20.4338   33.6133 O   0  0  0  0  0  0  0  0  0  0  0  0
   -5.7905  -17.7870   34.8164 C   0  0  0  0  0  0  0  0  0  0  0  0
   -5.9757  -18.0768   36.2468 C   0  0  0  0  0  0  0  0  0  0  0  0
   -7.2319  -17.7699   36.9462 C   0  0  0  0  0  0  0  0  0  0  0  0
   -7.0875  -17.5102   38.4177 C   0  0  0  0  0  0  0  0  0  0  0  0
   -1.4014  -17.4984   33.0601 N   0  0  0  0  0  0  0  0  0  0  0  0
   -2.0877  -14.7885   29.9751 C   0  0  0  0  0  0  0  0  0  0  0  0
    0.8000  -17.2517   28.1931 C   0  0  0  0  0  0  0  0  0  0  0  0
    1.6853  -17.0147   29.1990 C   0  0  0  0  0  0  0  0  0  0  0  0
    3.0128  -16.5496   28.9827 N   0  0  0  0  0  0  0  0  0  0  0  0
    3.3164  -15.2199   29.4440 C   0  0  0  0  0  0  0  0  0  0  0  0
    2.8139  -14.1148   28.5841 C   0  0  0  0  0  0  0  0  0  0  0  0
    3.1488  -12.7365   29.0526 C   0  0  0  0  0  0  0  0  0  0  0  0
    4.2075  -17.5088   28.1998 S   0  0  2  0  0  6  0  0  0  0  0  0
    4.9290  -18.4023   29.1707 O   0  0  0  0  0  0  0  0  0  0  0  0
    5.4476  -16.5265   27.4002 C   0  0  0  0  0  0  0  0  0  0  0  0
    3.5532  -18.4089   27.1976 O   0  0  0  0  0  0  0  0  0  0  0  0
    1.1963  -17.2613   30.4463 C   0  0  0  0  0  0  0  0  0  0  0  0
  1  2  2  0
 14  1  1  0
  1 32  1  0
  2  3  1  0
  3  4  2  0
  5  4  1  0
  5 15  1  0
 32  5  2  0
  7  6  2  0
  8  7  1  0
  7 31  1  0
  9  8  1  0
  8 43  2  0
 10  9  2  0
 11 10  1  0
 10 33  1  0
 12 11  1  0
 13 12  1  0
 13 14  1  0
 15 16  1  0
 16 17  1  6
 16 31  1  0
 17 18  1  0
 18 19  1  0
 19 20  1  0
 19 27  1  1
 20 21  1  0
 20 26  2  0
 21 22  1  0
 22 23  1  0
 23 24  1  1
 23 25  1  0
 27 28  1  0
 28 29  1  0
 29 30  1  0
 33 34  2  0
 34 35  1  0
 34 43  1  0
 35 36  1  0
 35 39  1  0
 36 37  1  0
 37 38  1  0
 39 40  2  0
 39 41  1  6
 39 42  2  0
M  CHG  1  18   1
M  END
$$$$
