
     RDKit          3D

 43 45  0  0  0  0  0  0  0  0999 V2000
   -3.0212  -15.7867   27.8176 C   0  0  0  0  0  0  0  0  0  0  0  0
   -4.4312  -15.8581   27.6958 C   0  0  0  0  0  0  0  0  0  0  0  0
   -5.2884  -15.5967   28.7274 C   0  0  0  0  0  0  0  0  0  0  0  0
   -4.6650  -15.2550   29.9076 C   0  0  0  0  0  0  0  0  0  0  0  0
   -3.2676  -15.1724   30.0735 C   0  0  0  0  0  0  0  0  0  0  0  0
    0.6693  -16.2518   33.3143 O   0  0  0  0  0  0  0  0  0  0  0  0
   -0.2954  -16.4529   32.4308 C   0  0  0  0  0  0  0  0  0  0  0  0
    0.1915  -16.8259   31.0883 C   0  0  0  0  0  0  0  0  0  0  0  0
   -0.2690  -17.7451   30.1844 C   0  0  0  0  0  0  0  0  0  0  0  0
    0.3228  -17.8753   28.9569 C   0  0  0  0  0  0  0  0  0  0  0  0
    0.0099  -18.7118   27.7670 C   0  0  0  0  0  0  0  0  0  0  0  0
   -0.4369  -17.8129   26.5949 C   0  0  0  0  0  0  0  0  0  0  0  0
   -1.9152  -17.6437   26.5353 C   0  0  0  0  0  0  0  0  0  0  0  0
   -2.3767  -16.1819   26.5102 C   0  0  0  0  0  0  0  0  0  0  0  0
   -2.9792  -14.8504   31.4962 C   0  0  0  0  0  0  0  0  0  0  0  0
   -2.8575  -16.0580   32.3974 C   0  0  1  0  0  0  0  0  0  0  0  0
   -3.4867  -17.2768   31.7993 C   0  0  0  0  0  0  0  0  0  0  0  0
   -3.8128  -18.3288   32.6901 N   0  0  0  0  0  4  0  0  0  0  0  0
   -3.4706  -18.1045   34.0999 C   0  0  2  0  0  0  0  0  0  0  0  0
   -3.8742  -19.3876   34.7350 C   0  0  0  0  0  0  0  0  0  0  0  0
   -3.2240  -19.8097   35.9519 N   0  0  0  0  0  0  0  0  0  0  0  0
   -4.0205  -20.0794   37.1564 C   0  0  0  0  0  0  0  0  0  0  0  0
   -3.9619  -21.5303   37.4924 C   0  0  1  0  0  0  0  0  0  0  0  0
   -4.3830  -22.3151   36.2533 C   0  0  0  0  0  0  0  0  0  0  0  0
   -2.5998  -21.9940   37.8792 C   0  0  0  0  0  0  0  0  0  0  0  0
   -4.7496  -20.1691   34.3083 O   0  0  0  0  0  0  0  0  0  0  0  0
   -4.2711  -16.9979   34.6605 C   0  0  0  0  0  0  0  0  0  0  0  0
   -5.2242  -17.1941   35.7639 C   0  0  0  0  0  0  0  0  0  0  0  0
   -5.9602  -16.0721   36.3646 C   0  0  0  0  0  0  0  0  0  0  0  0
   -6.8450  -16.4440   37.5189 C   0  0  0  0  0  0  0  0  0  0  0  0
   -1.5680  -16.2537   32.9978 N   0  0  0  0  0  0  0  0  0  0  0  0
   -2.4304  -15.4416   29.0067 C   0  0  0  0  0  0  0  0  0  0  0  0
    1.4266  -17.0446   28.6388 C   0  0  0  0  0  0  0  0  0  0  0  0
    1.9415  -16.1126   29.4860 C   0  0  0  0  0  0  0  0  0  0  0  0
    3.0516  -15.2839   29.1601 N   0  0  0  0  0  0  0  0  0  0  0  0
    2.8991  -13.8725   29.4009 C   0  0  0  0  0  0  0  0  0  0  0  0
    3.3044  -13.4077   30.7547 C   0  0  0  0  0  0  0  0  0  0  0  0
    4.3307  -14.2496   31.4397 C   0  0  0  0  0  0  0  0  0  0  0  0
    4.5087  -15.9161   28.4987 S   0  0  2  0  0  6  0  0  0  0  0  0
    5.6869  -15.6569   29.3966 O   0  0  0  0  0  0  0  0  0  0  0  0
    4.9052  -15.2005   26.9261 C   0  0  0  0  0  0  0  0  0  0  0  0
    4.3960  -17.4032   28.3622 O   0  0  0  0  0  0  0  0  0  0  0  0
    1.3041  -16.0336   30.6873 C   0  0  0  0  0  0  0  0  0  0  0  0
  1  2  2  0
 14  1  1  0
  1 32  1  0
  2  3  1  0
  3  4  2  0
  5  4  1  0
  5 15  1  0
 32  5  2  0
  7  6  2  0
  8  7  1  0
  7 31  1  0
  9  8  1  0
  8 43  2  0
 10  9  2  0
 11 10  1  0
 10 33  1  0
 12 11  1  0
 13 12  1  0
 13 14  1  0
 15 16  1  0
 16 17  1  6
 16 31  1  0
 17 18  1  0
 18 19  1  0
 19 20  1  0
 19 27  1  1
 20 21  1  0
 20 26  2  0
 21 22  1  0
 22 23  1  0
 23 24  1  6
 23 25  1  0
 27 28  1  0
 28 29  1  0
 29 30  1  0
 33 34  2  0
 34 35  1  0
 34 43  1  0
 35 36  1  0
 35 39  1  0
 36 37  1  0
 37 38  1  0
 39 40  2  0
 39 41  1  6
 39 42  2  0
M  CHG  1  18   1
M  END
$$$$
