
     RDKit          3D

 43 45  0  0  0  0  0  0  0  0999 V2000
   -2.7982  -13.7625   29.4764 C   0  0  0  0  0  0  0  0  0  0  0  0
   -4.0830  -13.2586   29.7979 C   0  0  0  0  0  0  0  0  0  0  0  0
   -4.6202  -13.3169   31.0530 C   0  0  0  0  0  0  0  0  0  0  0  0
   -3.8039  -13.9114   31.9902 C   0  0  0  0  0  0  0  0  0  0  0  0
   -2.5209  -14.4261   31.7147 C   0  0  0  0  0  0  0  0  0  0  0  0
    0.7365  -18.3800   32.6755 O   0  0  0  0  0  0  0  0  0  0  0  0
   -0.2871  -17.7192   32.1589 C   0  0  0  0  0  0  0  0  0  0  0  0
   -0.1563  -17.4487   30.7138 C   0  0  0  0  0  0  0  0  0  0  0  0
   -1.0734  -17.5025   29.6988 C   0  0  0  0  0  0  0  0  0  0  0  0
   -0.7264  -17.1451   28.4238 C   0  0  0  0  0  0  0  0  0  0  0  0
   -1.5013  -17.0325   27.1588 C   0  0  0  0  0  0  0  0  0  0  0  0
   -1.5827  -15.5548   26.7216 C   0  0  0  0  0  0  0  0  0  0  0  0
   -2.8097  -14.8766   27.2238 C   0  0  0  0  0  0  0  0  0  0  0  0
   -2.5358  -13.5832   28.0000 C   0  0  0  0  0  0  0  0  0  0  0  0
   -1.9861  -15.0498   32.9541 C   0  0  0  0  0  0  0  0  0  0  0  0
   -2.3597  -16.5037   33.1328 C   0  0  1  0  0  0  0  0  0  0  0  0
   -3.5369  -16.8930   32.2951 C   0  0  0  0  0  0  0  0  0  0  0  0
   -4.3596  -17.9323   32.7949 N   0  0  0  0  0  4  0  0  0  0  0  0
   -4.0331  -18.4173   34.1414 C   0  0  2  0  0  0  0  0  0  0  0  0
   -3.3575  -19.7122   33.8597 C   0  0  0  0  0  0  0  0  0  0  0  0
   -2.9296  -20.5408   34.9607 N   0  0  0  0  0  0  0  0  0  0  0  0
   -2.5715  -19.9282   36.2469 C   0  0  0  0  0  0  0  0  0  0  0  0
   -2.1493  -20.9812   37.2135 C   0  0  1  0  0  0  0  0  0  0  0  0
   -1.9388  -20.3142   38.5698 C   0  0  0  0  0  0  0  0  0  0  0  0
   -3.1610  -22.0602   37.3931 C   0  0  0  0  0  0  0  0  0  0  0  0
   -3.1107  -20.1749   32.7266 O   0  0  0  0  0  0  0  0  0  0  0  0
   -5.2637  -18.6569   34.9212 C   0  0  0  0  0  0  0  0  0  0  0  0
   -5.4612  -18.1075   36.2716 C   0  0  0  0  0  0  0  0  0  0  0  0
   -6.7877  -18.0542   36.9031 C   0  0  0  0  0  0  0  0  0  0  0  0
   -6.8176  -17.3987   38.2533 C   0  0  0  0  0  0  0  0  0  0  0  0
   -1.2616  -17.4286   33.1320 N   0  0  0  0  0  0  0  0  0  0  0  0
   -2.0081  -14.3478   30.4332 C   0  0  0  0  0  0  0  0  0  0  0  0
    0.6029  -16.7232   28.1701 C   0  0  0  0  0  0  0  0  0  0  0  0
    1.5687  -16.6480   29.1257 C   0  0  0  0  0  0  0  0  0  0  0  0
    2.9020  -16.2255   28.8625 N   0  0  0  0  0  0  0  0  0  0  0  0
    3.0613  -14.9468   28.2201 C   0  0  0  0  0  0  0  0  0  0  0  0
    2.8043  -14.9313   26.7549 C   0  0  0  0  0  0  0  0  0  0  0  0
    3.8263  -15.6292   25.9185 C   0  0  0  0  0  0  0  0  0  0  0  0
    4.2692  -17.1858   29.2731 S   0  0  2  0  0  6  0  0  0  0  0  0
    3.9967  -18.6528   29.0855 O   0  0  0  0  0  0  0  0  0  0  0  0
    4.7614  -16.9759   30.9631 C   0  0  0  0  0  0  0  0  0  0  0  0
    5.4133  -16.8458   28.3686 O   0  0  0  0  0  0  0  0  0  0  0  0
    1.1553  -17.0144   30.3709 C   0  0  0  0  0  0  0  0  0  0  0  0
  1  2  2  0
 14  1  1  0
  1 32  1  0
  2  3  1  0
  3  4  2  0
  5  4  1  0
  5 15  1  0
 32  5  2  0
  7  6  2  0
  8  7  1  0
  7 31  1  0
  9  8  1  0
  8 43  2  0
 10  9  2  0
 11 10  1  0
 10 33  1  0
 12 11  1  0
 13 12  1  0
 13 14  1  0
 15 16  1  0
 16 17  1  6
 16 31  1  0
 17 18  1  0
 18 19  1  0
 19 20  1  0
 19 27  1  1
 20 21  1  0
 20 26  2  0
 21 22  1  0
 22 23  1  0
 23 24  1  1
 23 25  1  0
 27 28  1  0
 28 29  1  0
 29 30  1  0
 33 34  2  0
 34 35  1  0
 34 43  1  0
 35 36  1  0
 35 39  1  0
 36 37  1  0
 37 38  1  0
 39 40  2  0
 39 41  1  1
 39 42  2  0
M  CHG  1  18   1
M  END
$$$$
