
     RDKit          3D

 43 45  0  0  0  0  0  0  0  0999 V2000
   -0.3473  -12.7590   32.0941 C   0  0  0  0  0  0  0  0  0  0  0  0
   -1.0829  -12.0494   33.0756 C   0  0  0  0  0  0  0  0  0  0  0  0
   -1.5323  -12.6180   34.2341 C   0  0  0  0  0  0  0  0  0  0  0  0
   -1.2097  -13.9502   34.3722 C   0  0  0  0  0  0  0  0  0  0  0  0
   -0.4812  -14.6943   33.4221 C   0  0  0  0  0  0  0  0  0  0  0  0
   -0.1678  -19.3045   31.0106 O   0  0  0  0  0  0  0  0  0  0  0  0
   -0.6125  -18.0952   31.3132 C   0  0  0  0  0  0  0  0  0  0  0  0
   -0.3690  -17.0882   30.2620 C   0  0  0  0  0  0  0  0  0  0  0  0
   -1.1565  -16.0768   29.7812 C   0  0  0  0  0  0  0  0  0  0  0  0
   -0.6846  -15.2178   28.8256 C   0  0  0  0  0  0  0  0  0  0  0  0
   -1.2629  -14.0101   28.1771 C   0  0  0  0  0  0  0  0  0  0  0  0
   -0.4638  -12.7568   28.5918 C   0  0  0  0  0  0  0  0  0  0  0  0
   -1.0472  -12.0738   29.7797 C   0  0  0  0  0  0  0  0  0  0  0  0
   -0.0517  -11.8508   30.9241 C   0  0  0  0  0  0  0  0  0  0  0  0
   -0.3986  -16.1037   33.8886 C   0  0  0  0  0  0  0  0  0  0  0  0
   -1.5549  -16.9745   33.4527 C   0  0  1  0  0  0  0  0  0  0  0  0
   -2.7476  -16.1690   33.0432 C   0  0  0  0  0  0  0  0  0  0  0  0
   -3.9307  -16.8882   32.7437 N   0  0  0  0  0  4  0  0  0  0  0  0
   -3.7708  -18.3348   32.5525 C   0  0  2  0  0  0  0  0  0  0  0  0
   -4.2615  -18.5297   31.1619 C   0  0  0  0  0  0  0  0  0  0  0  0
   -5.0172  -17.4787   30.5247 N   0  0  0  0  0  0  0  0  0  0  0  0
   -5.4272  -17.6144   29.1207 C   0  0  0  0  0  0  0  0  0  0  0  0
   -4.2318  -17.8395   28.2596 C   0  0  1  0  0  0  0  0  0  0  0  0
   -4.6676  -18.6837   27.0653 C   0  0  0  0  0  0  0  0  0  0  0  0
   -3.6382  -16.5800   27.7295 C   0  0  0  0  0  0  0  0  0  0  0  0
   -4.0824  -19.5475   30.4611 O   0  0  0  0  0  0  0  0  0  0  0  0
   -4.6291  -19.0825   33.4929 C   0  0  0  0  0  0  0  0  0  0  0  0
   -4.0771  -19.9359   34.5564 C   0  0  0  0  0  0  0  0  0  0  0  0
   -2.8114  -20.6651   34.3902 C   0  0  0  0  0  0  0  0  0  0  0  0
   -2.4166  -21.5185   35.5604 C   0  0  0  0  0  0  0  0  0  0  0  0
   -1.2135  -18.0668   32.5855 N   0  0  0  0  0  0  0  0  0  0  0  0
   -0.0401  -14.0855   32.2618 C   0  0  0  0  0  0  0  0  0  0  0  0
    0.6339  -15.3969   28.3366 C   0  0  0  0  0  0  0  0  0  0  0  0
    1.4724  -16.3801   28.7631 C   0  0  0  0  0  0  0  0  0  0  0  0
    2.7942  -16.5547   28.2655 N   0  0  0  0  0  0  0  0  0  0  0  0
    3.1132  -15.8919   27.0278 C   0  0  0  0  0  0  0  0  0  0  0  0
    4.0002  -14.7038   27.1491 C   0  0  0  0  0  0  0  0  0  0  0  0
    4.2104  -13.9306   25.8885 C   0  0  0  0  0  0  0  0  0  0  0  0
    3.9647  -17.5162   29.0815 S   0  0  2  0  0  6  0  0  0  0  0  0
    3.3292  -18.6652   29.8146 O   0  0  0  0  0  0  0  0  0  0  0  0
    4.8790  -16.5922   30.2868 C   0  0  0  0  0  0  0  0  0  0  0  0
    4.9074  -18.1160   28.0844 O   0  0  0  0  0  0  0  0  0  0  0  0
    0.9412  -17.1961   29.7157 C   0  0  0  0  0  0  0  0  0  0  0  0
  1  2  2  0
 14  1  1  0
  1 32  1  0
  2  3  1  0
  3  4  2  0
  5  4  1  0
  5 15  1  0
 32  5  2  0
  7  6  2  0
  8  7  1  0
  7 31  1  0
  9  8  1  0
  8 43  2  0
 10  9  2  0
 11 10  1  0
 10 33  1  0
 12 11  1  0
 13 12  1  0
 13 14  1  0
 15 16  1  0
 16 17  1  6
 16 31  1  0
 17 18  1  0
 18 19  1  0
 19 20  1  0
 19 27  1  1
 20 21  1  0
 20 26  2  0
 21 22  1  0
 22 23  1  0
 23 24  1  6
 23 25  1  0
 27 28  1  0
 28 29  1  0
 29 30  1  0
 33 34  2  0
 34 35  1  0
 34 43  1  0
 35 36  1  0
 35 39  1  0
 36 37  1  0
 37 38  1  0
 39 40  2  0
 39 41  1  1
 39 42  2  0
M  CHG  1  18   1
M  END
$$$$
