
     RDKit          3D

 43 45  0  0  0  0  0  0  0  0999 V2000
   -2.6346  -14.0792   29.5221 C   0  0  0  0  0  0  0  0  0  0  0  0
   -3.9364  -13.5592   29.7293 C   0  0  0  0  0  0  0  0  0  0  0  0
   -4.5783  -13.5999   30.9349 C   0  0  0  0  0  0  0  0  0  0  0  0
   -3.8506  -14.1933   31.9431 C   0  0  0  0  0  0  0  0  0  0  0  0
   -2.5546  -14.7236   31.7816 C   0  0  0  0  0  0  0  0  0  0  0  0
    0.5669  -18.7004   33.0498 O   0  0  0  0  0  0  0  0  0  0  0  0
   -0.4022  -18.0344   32.4425 C   0  0  0  0  0  0  0  0  0  0  0  0
   -0.1468  -17.7795   31.0113 C   0  0  0  0  0  0  0  0  0  0  0  0
   -0.9754  -17.8340   29.9230 C   0  0  0  0  0  0  0  0  0  0  0  0
   -0.5181  -17.4926   28.6787 C   0  0  0  0  0  0  0  0  0  0  0  0
   -1.1822  -17.3847   27.3517 C   0  0  0  0  0  0  0  0  0  0  0  0
   -1.2103  -15.9106   26.8960 C   0  0  0  0  0  0  0  0  0  0  0  0
   -2.4678  -15.2151   27.2866 C   0  0  0  0  0  0  0  0  0  0  0  0
   -2.2465  -13.9170   28.0716 C   0  0  0  0  0  0  0  0  0  0  0  0
   -2.1332  -15.3404   33.0673 C   0  0  0  0  0  0  0  0  0  0  0  0
   -2.5363  -16.7886   33.2268 C   0  0  1  0  0  0  0  0  0  0  0  0
   -3.6427  -17.1743   32.2960 C   0  0  0  0  0  0  0  0  0  0  0  0
   -4.7260  -17.8946   32.8567 N   0  0  0  0  0  4  0  0  0  0  0  0
   -4.8009  -17.9018   34.3228 C   0  0  2  0  0  0  0  0  0  0  0  0
   -4.0957  -19.1638   34.6728 C   0  0  0  0  0  0  0  0  0  0  0  0
   -2.8314  -19.0988   35.3650 N   0  0  0  0  0  0  0  0  0  0  0  0
   -2.3854  -20.2291   36.1905 C   0  0  0  0  0  0  0  0  0  0  0  0
   -1.3734  -21.0341   35.4494 C   0  0  1  0  0  0  0  0  0  0  0  0
   -0.1021  -20.1977   35.3357 C   0  0  0  0  0  0  0  0  0  0  0  0
   -1.0154  -22.3091   36.1321 C   0  0  0  0  0  0  0  0  0  0  0  0
   -4.4977  -20.3185   34.4195 O   0  0  0  0  0  0  0  0  0  0  0  0
   -6.2055  -17.9751   34.7721 C   0  0  0  0  0  0  0  0  0  0  0  0
   -6.5732  -18.1484   36.1859 C   0  0  0  0  0  0  0  0  0  0  0  0
   -7.9729  -18.2851   36.6144 C   0  0  0  0  0  0  0  0  0  0  0  0
   -8.1685  -18.4209   38.0965 C   0  0  0  0  0  0  0  0  0  0  0  0
   -1.4521  -17.7246   33.3271 N   0  0  0  0  0  0  0  0  0  0  0  0
   -1.9345  -14.6630   30.5475 C   0  0  0  0  0  0  0  0  0  0  0  0
    0.8324  -17.0865   28.5345 C   0  0  0  0  0  0  0  0  0  0  0  0
    1.7147  -17.0117   29.5677 C   0  0  0  0  0  0  0  0  0  0  0  0
    3.0700  -16.6052   29.4145 N   0  0  0  0  0  0  0  0  0  0  0  0
    3.4292  -15.3262   29.9696 C   0  0  0  0  0  0  0  0  0  0  0  0
    3.7473  -14.2651   28.9766 C   0  0  0  0  0  0  0  0  0  0  0  0
    4.2881  -12.9953   29.5479 C   0  0  0  0  0  0  0  0  0  0  0  0
    4.2344  -17.5744   28.5991 S   0  0  2  0  0  6  0  0  0  0  0  0
    4.7483  -16.9010   27.3565 O   0  0  0  0  0  0  0  0  0  0  0  0
    3.5759  -19.1394   28.0896 C   0  0  0  0  0  0  0  0  0  0  0  0
    5.4202  -17.7913   29.4877 O   0  0  0  0  0  0  0  0  0  0  0  0
    1.1937  -17.3617   30.7768 C   0  0  0  0  0  0  0  0  0  0  0  0
  1  2  2  0
 14  1  1  0
  1 32  1  0
  2  3  1  0
  3  4  2  0
  5  4  1  0
  5 15  1  0
 32  5  2  0
  7  6  2  0
  8  7  1  0
  7 31  1  0
  9  8  1  0
  8 43  2  0
 10  9  2  0
 11 10  1  0
 10 33  1  0
 12 11  1  0
 13 12  1  0
 13 14  1  0
 15 16  1  0
 16 17  1  6
 16 31  1  0
 17 18  1  0
 18 19  1  0
 19 20  1  0
 19 27  1  6
 20 21  1  0
 20 26  2  0
 21 22  1  0
 22 23  1  0
 23 24  1  1
 23 25  1  0
 27 28  1  0
 28 29  1  0
 29 30  1  0
 33 34  2  0
 34 35  1  0
 34 43  1  0
 35 36  1  0
 35 39  1  0
 36 37  1  0
 37 38  1  0
 39 40  2  0
 39 41  1  6
 39 42  2  0
M  CHG  1  18   1
M  END
$$$$
