
     RDKit          3D

 43 45  0  0  0  0  0  0  0  0999 V2000
   -2.4836  -13.9555   29.5743 C   0  0  0  0  0  0  0  0  0  0  0  0
   -3.7425  -13.3412   29.7886 C   0  0  0  0  0  0  0  0  0  0  0  0
   -4.3701  -13.3181   31.0022 C   0  0  0  0  0  0  0  0  0  0  0  0
   -3.6734  -13.9467   32.0110 C   0  0  0  0  0  0  0  0  0  0  0  0
   -2.4204  -14.5702   31.8426 C   0  0  0  0  0  0  0  0  0  0  0  0
    0.4270  -18.7398   33.1364 O   0  0  0  0  0  0  0  0  0  0  0  0
   -0.5001  -18.0156   32.5302 C   0  0  0  0  0  0  0  0  0  0  0  0
   -0.2458  -17.8009   31.0922 C   0  0  0  0  0  0  0  0  0  0  0  0
   -1.0901  -17.8125   30.0147 C   0  0  0  0  0  0  0  0  0  0  0  0
   -0.6259  -17.5231   28.7599 C   0  0  0  0  0  0  0  0  0  0  0  0
   -1.2976  -17.3880   27.4393 C   0  0  0  0  0  0  0  0  0  0  0  0
   -1.2269  -15.9226   26.9608 C   0  0  0  0  0  0  0  0  0  0  0  0
   -2.4268  -15.1337   27.3552 C   0  0  0  0  0  0  0  0  0  0  0  0
   -2.1037  -13.8430   28.1169 C   0  0  0  0  0  0  0  0  0  0  0  0
   -2.0273  -15.1962   33.1328 C   0  0  0  0  0  0  0  0  0  0  0  0
   -2.5301  -16.6096   33.3198 C   0  0  1  0  0  0  0  0  0  0  0  0
   -3.6730  -16.9294   32.4084 C   0  0  0  0  0  0  0  0  0  0  0  0
   -4.5861  -17.9170   32.8528 N   0  0  0  0  0  4  0  0  0  0  0  0
   -4.6671  -18.1081   34.3060 C   0  0  2  0  0  0  0  0  0  0  0  0
   -3.3980  -18.8237   34.6057 C   0  0  0  0  0  0  0  0  0  0  0  0
   -3.2855  -19.5824   35.8277 N   0  0  0  0  0  0  0  0  0  0  0  0
   -1.9623  -19.9736   36.3319 C   0  0  0  0  0  0  0  0  0  0  0  0
   -2.0369  -20.2587   37.7929 C   0  0  1  0  0  0  0  0  0  0  0  0
   -1.3842  -19.0934   38.5310 C   0  0  0  0  0  0  0  0  0  0  0  0
   -3.4316  -20.3900   38.3002 C   0  0  0  0  0  0  0  0  0  0  0  0
   -2.3795  -18.8361   33.8834 O   0  0  0  0  0  0  0  0  0  0  0  0
   -5.8170  -18.9659   34.6553 C   0  0  0  0  0  0  0  0  0  0  0  0
   -6.3241  -19.0834   36.0312 C   0  0  0  0  0  0  0  0  0  0  0  0
   -7.3661  -20.0543   36.3958 C   0  0  0  0  0  0  0  0  0  0  0  0
   -7.8496  -19.9582   37.8137 C   0  0  0  0  0  0  0  0  0  0  0  0
   -1.5139  -17.6187   33.4221 N   0  0  0  0  0  0  0  0  0  0  0  0
   -1.8136  -14.5723   30.6004 C   0  0  0  0  0  0  0  0  0  0  0  0
    0.7481  -17.2164   28.5934 C   0  0  0  0  0  0  0  0  0  0  0  0
    1.6468  -17.1892   29.6148 C   0  0  0  0  0  0  0  0  0  0  0  0
    3.0254  -16.8825   29.4392 N   0  0  0  0  0  0  0  0  0  0  0  0
    3.4691  -15.5984   29.9160 C   0  0  0  0  0  0  0  0  0  0  0  0
    3.8733  -15.5528   31.3469 C   0  0  0  0  0  0  0  0  0  0  0  0
    4.3203  -14.2167   31.8434 C   0  0  0  0  0  0  0  0  0  0  0  0
    4.1218  -17.9737   28.6860 S   0  0  2  0  0  6  0  0  0  0  0  0
    5.4966  -17.8876   29.2893 O   0  0  0  0  0  0  0  0  0  0  0  0
    4.3104  -17.6555   26.9524 C   0  0  0  0  0  0  0  0  0  0  0  0
    3.6532  -19.3811   28.8925 O   0  0  0  0  0  0  0  0  0  0  0  0
    1.1179  -17.4831   30.8353 C   0  0  0  0  0  0  0  0  0  0  0  0
  1  2  2  0
 14  1  1  0
  1 32  1  0
  2  3  1  0
  3  4  2  0
  5  4  1  0
  5 15  1  0
 32  5  2  0
  7  6  2  0
  8  7  1  0
  7 31  1  0
  9  8  1  0
  8 43  2  0
 10  9  2  0
 11 10  1  0
 10 33  1  0
 12 11  1  0
 13 12  1  0
 13 14  1  0
 15 16  1  0
 16 17  1  6
 16 31  1  0
 17 18  1  0
 18 19  1  0
 19 20  1  0
 19 27  1  6
 20 21  1  0
 20 26  2  0
 21 22  1  0
 22 23  1  0
 23 24  1  1
 23 25  1  0
 27 28  1  0
 28 29  1  0
 29 30  1  0
 33 34  2  0
 34 35  1  0
 34 43  1  0
 35 36  1  0
 35 39  1  0
 36 37  1  0
 37 38  1  0
 39 40  2  0
 39 41  1  6
 39 42  2  0
M  CHG  1  18   1
M  END
$$$$
