
     RDKit          3D

 43 45  0  0  0  0  0  0  0  0999 V2000
   -2.9447  -13.9492   29.9333 C   0  0  0  0  0  0  0  0  0  0  0  0
   -4.2058  -13.4520   30.3461 C   0  0  0  0  0  0  0  0  0  0  0  0
   -4.7299  -13.6727   31.5886 C   0  0  0  0  0  0  0  0  0  0  0  0
   -3.9255  -14.4254   32.4160 C   0  0  0  0  0  0  0  0  0  0  0  0
   -2.6661  -14.9399   32.0470 C   0  0  0  0  0  0  0  0  0  0  0  0
    0.4516  -19.1044   32.3703 O   0  0  0  0  0  0  0  0  0  0  0  0
   -0.5526  -18.3397   31.9722 C   0  0  0  0  0  0  0  0  0  0  0  0
   -0.4287  -17.8673   30.5794 C   0  0  0  0  0  0  0  0  0  0  0  0
   -1.3592  -17.7407   29.5832 C   0  0  0  0  0  0  0  0  0  0  0  0
   -1.0141  -17.2147   28.3674 C   0  0  0  0  0  0  0  0  0  0  0  0
   -1.7991  -16.8924   27.1454 C   0  0  0  0  0  0  0  0  0  0  0  0
   -1.8301  -15.3649   26.9278 C   0  0  0  0  0  0  0  0  0  0  0  0
   -3.0247  -14.7236   27.5438 C   0  0  0  0  0  0  0  0  0  0  0  0
   -2.6932  -13.5670   28.4939 C   0  0  0  0  0  0  0  0  0  0  0  0
   -2.1405  -15.7553   33.1739 C   0  0  0  0  0  0  0  0  0  0  0  0
   -2.5663  -17.2056   33.1470 C   0  0  1  0  0  0  0  0  0  0  0  0
   -3.7671  -17.4273   32.2821 C   0  0  0  0  0  0  0  0  0  0  0  0
   -4.3048  -18.7377   32.2609 N   0  0  0  0  0  4  0  0  0  0  0  0
   -4.4937  -19.3746   33.5700 C   0  0  2  0  0  0  0  0  0  0  0  0
   -4.9386  -18.2364   34.4181 C   0  0  0  0  0  0  0  0  0  0  0  0
   -6.0776  -18.4053   35.2875 N   0  0  0  0  0  0  0  0  0  0  0  0
   -5.8893  -18.4703   36.7429 C   0  0  0  0  0  0  0  0  0  0  0  0
   -6.4393  -17.2423   37.3838 C   0  0  1  0  0  0  0  0  0  0  0  0
   -6.4595  -16.1352   36.3337 C   0  0  0  0  0  0  0  0  0  0  0  0
   -7.8308  -17.4106   37.8892 C   0  0  0  0  0  0  0  0  0  0  0  0
   -4.4103  -17.1058   34.4572 O   0  0  0  0  0  0  0  0  0  0  0  0
   -3.2140  -19.9055   34.0804 C   0  0  0  0  0  0  0  0  0  0  0  0
   -2.8002  -21.3018   33.8719 C   0  0  0  0  0  0  0  0  0  0  0  0
   -1.6634  -21.8921   34.5934 C   0  0  0  0  0  0  0  0  0  0  0  0
   -2.0356  -22.7110   35.7952 C   0  0  0  0  0  0  0  0  0  0  0  0
   -1.5038  -18.1590   32.9936 N   0  0  0  0  0  0  0  0  0  0  0  0
   -2.1659  -14.6948   30.7817 C   0  0  0  0  0  0  0  0  0  0  0  0
    0.3271  -16.8078   28.1546 C   0  0  0  0  0  0  0  0  0  0  0  0
    1.3062  -16.9064   29.0944 C   0  0  0  0  0  0  0  0  0  0  0  0
    2.6512  -16.4977   28.8722 N   0  0  0  0  0  0  0  0  0  0  0  0
    2.8900  -15.0811   28.7746 C   0  0  0  0  0  0  0  0  0  0  0  0
    4.1235  -14.6900   28.0407 C   0  0  0  0  0  0  0  0  0  0  0  0
    4.3726  -13.2203   27.9453 C   0  0  0  0  0  0  0  0  0  0  0  0
    3.9410  -17.6253   28.7134 S   0  0  2  0  0  6  0  0  0  0  0  0
    3.4658  -18.9417   28.1630 O   0  0  0  0  0  0  0  0  0  0  0  0
    4.7254  -17.9797   30.2630 C   0  0  0  0  0  0  0  0  0  0  0  0
    4.9538  -17.0987   27.7441 O   0  0  0  0  0  0  0  0  0  0  0  0
    0.8941  -17.4346   30.2805 C   0  0  0  0  0  0  0  0  0  0  0  0
  1  2  2  0
 14  1  1  0
  1 32  1  0
  2  3  1  0
  3  4  2  0
  5  4  1  0
  5 15  1  0
 32  5  2  0
  7  6  2  0
  8  7  1  0
  7 31  1  0
  9  8  1  0
  8 43  2  0
 10  9  2  0
 11 10  1  0
 10 33  1  0
 12 11  1  0
 13 12  1  0
 13 14  1  0
 15 16  1  0
 16 17  1  6
 16 31  1  0
 17 18  1  0
 18 19  1  0
 19 20  1  0
 19 27  1  1
 20 21  1  0
 20 26  2  0
 21 22  1  0
 22 23  1  0
 23 24  1  6
 23 25  1  0
 27 28  1  0
 28 29  1  0
 29 30  1  0
 33 34  2  0
 34 35  1  0
 34 43  1  0
 35 36  1  0
 35 39  1  0
 36 37  1  0
 37 38  1  0
 39 40  2  0
 39 41  1  1
 39 42  2  0
M  CHG  1  18   1
M  END
$$$$
