
     RDKit          3D

 43 45  0  0  0  0  0  0  0  0999 V2000
   -2.6527  -13.6929   30.0246 C   0  0  0  0  0  0  0  0  0  0  0  0
   -3.8832  -13.0644   30.3390 C   0  0  0  0  0  0  0  0  0  0  0  0
   -4.4378  -13.0814   31.5878 C   0  0  0  0  0  0  0  0  0  0  0  0
   -3.6967  -13.7659   32.5261 C   0  0  0  0  0  0  0  0  0  0  0  0
   -2.4696  -14.4055   32.2575 C   0  0  0  0  0  0  0  0  0  0  0  0
    0.3583  -18.6802   33.2042 O   0  0  0  0  0  0  0  0  0  0  0  0
   -0.5870  -17.9132   32.6851 C   0  0  0  0  0  0  0  0  0  0  0  0
   -0.4130  -17.6419   31.2447 C   0  0  0  0  0  0  0  0  0  0  0  0
   -1.3193  -17.5911   30.2199 C   0  0  0  0  0  0  0  0  0  0  0  0
   -0.9234  -17.2571   28.9528 C   0  0  0  0  0  0  0  0  0  0  0  0
   -1.6685  -17.0526   27.6814 C   0  0  0  0  0  0  0  0  0  0  0  0
   -1.5944  -15.5696   27.2610 C   0  0  0  0  0  0  0  0  0  0  0  0
   -2.7518  -14.7756   27.7588 C   0  0  0  0  0  0  0  0  0  0  0  0
   -2.3567  -13.5252   28.5531 C   0  0  0  0  0  0  0  0  0  0  0  0
   -2.0150  -15.0936   33.4947 C   0  0  0  0  0  0  0  0  0  0  0  0
   -2.5363  -16.5038   33.6523 C   0  0  1  0  0  0  0  0  0  0  0  0
   -3.7374  -16.7624   32.7981 C   0  0  0  0  0  0  0  0  0  0  0  0
   -4.5966  -17.8119   33.2066 N   0  0  0  0  0  4  0  0  0  0  0  0
   -4.7044  -18.0255   34.6549 C   0  0  2  0  0  0  0  0  0  0  0  0
   -3.4696  -18.7979   34.9570 C   0  0  0  0  0  0  0  0  0  0  0  0
   -2.9433  -18.7930   36.3004 N   0  0  0  0  0  0  0  0  0  0  0  0
   -1.4912  -18.7734   36.5218 C   0  0  0  0  0  0  0  0  0  0  0  0
   -0.9829  -20.1636   36.6958 C   0  0  1  0  0  0  0  0  0  0  0  0
   -2.1276  -21.0164   37.2353 C   0  0  0  0  0  0  0  0  0  0  0  0
   -0.5155  -20.7866   35.4257 C   0  0  0  0  0  0  0  0  0  0  0  0
   -2.8142  -19.4753   34.1380 O   0  0  0  0  0  0  0  0  0  0  0  0
   -5.8928  -18.8415   34.9740 C   0  0  0  0  0  0  0  0  0  0  0  0
   -6.0548  -19.5277   36.2652 C   0  0  0  0  0  0  0  0  0  0  0  0
   -7.2061  -20.3984   36.5441 C   0  0  0  0  0  0  0  0  0  0  0  0
   -8.5435  -19.7999   36.2174 C   0  0  0  0  0  0  0  0  0  0  0  0
   -1.5378  -17.5356   33.6516 N   0  0  0  0  0  0  0  0  0  0  0  0
   -1.9370  -14.3658   30.9823 C   0  0  0  0  0  0  0  0  0  0  0  0
    0.4447  -16.9697   28.7176 C   0  0  0  0  0  0  0  0  0  0  0  0
    1.4022  -17.0036   29.6839 C   0  0  0  0  0  0  0  0  0  0  0  0
    2.7744  -16.7160   29.4393 N   0  0  0  0  0  0  0  0  0  0  0  0
    3.0578  -15.6396   28.5260 C   0  0  0  0  0  0  0  0  0  0  0  0
    2.3105  -15.6789   27.2402 C   0  0  0  0  0  0  0  0  0  0  0  0
    2.8099  -14.7515   26.1811 C   0  0  0  0  0  0  0  0  0  0  0  0
    4.0470  -17.6065   30.1793 S   0  0  2  0  0  6  0  0  0  0  0  0
    3.6158  -19.0020   30.5374 O   0  0  0  0  0  0  0  0  0  0  0  0
    4.6171  -16.8537   31.6795 C   0  0  0  0  0  0  0  0  0  0  0  0
    5.1881  -17.7462   29.2196 O   0  0  0  0  0  0  0  0  0  0  0  0
    0.9397  -17.3394   30.9204 C   0  0  0  0  0  0  0  0  0  0  0  0
  1  2  2  0
 14  1  1  0
  1 32  1  0
  2  3  1  0
  3  4  2  0
  5  4  1  0
  5 15  1  0
 32  5  2  0
  7  6  2  0
  8  7  1  0
  7 31  1  0
  9  8  1  0
  8 43  2  0
 10  9  2  0
 11 10  1  0
 10 33  1  0
 12 11  1  0
 13 12  1  0
 13 14  1  0
 15 16  1  0
 16 17  1  6
 16 31  1  0
 17 18  1  0
 18 19  1  0
 19 20  1  0
 19 27  1  6
 20 21  1  0
 20 26  2  0
 21 22  1  0
 22 23  1  0
 23 24  1  6
 23 25  1  0
 27 28  1  0
 28 29  1  0
 29 30  1  0
 33 34  2  0
 34 35  1  0
 34 43  1  0
 35 36  1  0
 35 39  1  0
 36 37  1  0
 37 38  1  0
 39 40  2  0
 39 41  1  1
 39 42  2  0
M  CHG  1  18   1
M  END
$$$$
