
     RDKit          3D

 43 45  0  0  0  0  0  0  0  0999 V2000
   -3.0357  -14.2423   29.1797 C   0  0  0  0  0  0  0  0  0  0  0  0
   -4.3263  -13.7009   29.4013 C   0  0  0  0  0  0  0  0  0  0  0  0
   -4.9093  -13.6299   30.6351 C   0  0  0  0  0  0  0  0  0  0  0  0
   -4.1334  -14.1324   31.6567 C   0  0  0  0  0  0  0  0  0  0  0  0
   -2.8464  -14.6799   31.4818 C   0  0  0  0  0  0  0  0  0  0  0  0
    0.3352  -18.5373   32.9531 O   0  0  0  0  0  0  0  0  0  0  0  0
   -0.6625  -17.9254   32.3354 C   0  0  0  0  0  0  0  0  0  0  0  0
   -0.4766  -17.8020   30.8763 C   0  0  0  0  0  0  0  0  0  0  0  0
   -1.3567  -17.9516   29.8385 C   0  0  0  0  0  0  0  0  0  0  0  0
   -0.9602  -17.7259   28.5479 C   0  0  0  0  0  0  0  0  0  0  0  0
   -1.6875  -17.7359   27.2501 C   0  0  0  0  0  0  0  0  0  0  0  0
   -1.7385  -16.3090   26.6647 C   0  0  0  0  0  0  0  0  0  0  0  0
   -2.9762  -15.5764   27.0508 C   0  0  0  0  0  0  0  0  0  0  0  0
   -2.7181  -14.2134   27.7035 C   0  0  0  0  0  0  0  0  0  0  0  0
   -2.3630  -15.1795   32.7963 C   0  0  0  0  0  0  0  0  0  0  0  0
   -2.7571  -16.6058   33.1054 C   0  0  1  0  0  0  0  0  0  0  0  0
   -3.9068  -17.0700   32.2677 C   0  0  0  0  0  0  0  0  0  0  0  0
   -4.8727  -17.8861   32.9062 N   0  0  0  0  0  4  0  0  0  0  0  0
   -4.8340  -17.8969   34.3736 C   0  0  2  0  0  0  0  0  0  0  0  0
   -3.4847  -18.4567   34.6538 C   0  0  0  0  0  0  0  0  0  0  0  0
   -2.9787  -18.4398   36.0049 N   0  0  0  0  0  0  0  0  0  0  0  0
   -1.7763  -19.2099   36.3501 C   0  0  0  0  0  0  0  0  0  0  0  0
   -2.1620  -20.4900   37.0088 C   0  0  1  0  0  0  0  0  0  0  0  0
   -0.8816  -21.1944   37.4483 C   0  0  0  0  0  0  0  0  0  0  0  0
   -3.0113  -20.3011   38.2183 C   0  0  0  0  0  0  0  0  0  0  0  0
   -2.7132  -18.9579   33.8097 O   0  0  0  0  0  0  0  0  0  0  0  0
   -5.8698  -18.7989   34.9153 C   0  0  0  0  0  0  0  0  0  0  0  0
   -5.8362  -19.2976   36.2989 C   0  0  0  0  0  0  0  0  0  0  0  0
   -6.8774  -20.1894   36.8297 C   0  0  0  0  0  0  0  0  0  0  0  0
   -8.1971  -19.5271   37.1006 C   0  0  0  0  0  0  0  0  0  0  0  0
   -1.6687  -17.5329   33.2377 N   0  0  0  0  0  0  0  0  0  0  0  0
   -2.2866  -14.7336   30.2188 C   0  0  0  0  0  0  0  0  0  0  0  0
    0.3815  -17.3396   28.3028 C   0  0  0  0  0  0  0  0  0  0  0  0
    1.3126  -17.1749   29.2813 C   0  0  0  0  0  0  0  0  0  0  0  0
    2.6587  -16.7890   29.0269 N   0  0  0  0  0  0  0  0  0  0  0  0
    2.9475  -15.3791   29.0707 C   0  0  0  0  0  0  0  0  0  0  0  0
    2.8797  -14.6719   27.7637 C   0  0  0  0  0  0  0  0  0  0  0  0
    3.1538  -13.2044   27.8151 C   0  0  0  0  0  0  0  0  0  0  0  0
    3.8923  -17.9342   28.6708 S   0  0  2  0  0  6  0  0  0  0  0  0
    3.3216  -19.2923   28.3685 O   0  0  0  0  0  0  0  0  0  0  0  0
    5.0245  -18.1508   30.0175 C   0  0  0  0  0  0  0  0  0  0  0  0
    4.6405  -17.5042   27.4469 O   0  0  0  0  0  0  0  0  0  0  0  0
    0.8508  -17.4121   30.5407 C   0  0  0  0  0  0  0  0  0  0  0  0
  1  2  2  0
 14  1  1  0
  1 32  1  0
  2  3  1  0
  3  4  2  0
  5  4  1  0
  5 15  1  0
 32  5  2  0
  7  6  2  0
  8  7  1  0
  7 31  1  0
  9  8  1  0
  8 43  2  0
 10  9  2  0
 11 10  1  0
 10 33  1  0
 12 11  1  0
 13 12  1  0
 13 14  1  0
 15 16  1  0
 16 17  1  6
 16 31  1  0
 17 18  1  0
 18 19  1  0
 19 20  1  0
 19 27  1  1
 20 21  1  0
 20 26  2  0
 21 22  1  0
 22 23  1  0
 23 24  1  1
 23 25  1  0
 27 28  1  0
 28 29  1  0
 29 30  1  0
 33 34  2  0
 34 35  1  0
 34 43  1  0
 35 36  1  0
 35 39  1  0
 36 37  1  0
 37 38  1  0
 39 40  2  0
 39 41  1  1
 39 42  2  0
M  CHG  1  18   1
M  END
$$$$
