
     RDKit          3D

 24 27  0  0  0  0  0  0  0  0999 V2000
   -4.3423    6.2911  -20.3439 C   0  0  0  0  0  0  0  0  0  0  0  0
   -3.7333    7.4955  -20.1316 C   0  0  0  0  0  0  0  0  0  0  0  0
   -3.9387    8.1477  -18.9066 C   0  0  0  0  0  0  0  0  0  0  0  0
   -2.5577    9.9203  -19.5861 C   0  0  0  0  0  0  0  0  0  0  0  0
   -2.9295    8.0731  -21.0855 C   0  0  0  0  0  0  0  0  0  0  0  0
   -4.6120    8.4411  -23.6942 C   0  0  0  0  0  0  0  0  0  0  0  0
   -4.5596    9.7463  -24.1152 C   0  0  0  0  0  0  0  0  0  0  0  0
   -6.4628    6.7789  -22.9990 C   0  0  0  0  0  0  0  0  0  0  0  0
   -5.1546    5.6937  -19.3914 C   0  0  0  0  0  0  0  0  0  0  0  0
   -2.7239    7.3961  -22.3673 C   0  0  0  0  0  0  0  0  0  0  0  0
   -3.4698    7.5569  -23.5126 C   0  0  0  0  0  0  0  0  0  0  0  0
   -1.8887    6.0910  -23.8905 C   0  0  0  0  0  0  0  0  0  0  0  0
   -0.7395    6.0197  -21.6871 C   0  0  0  0  0  0  0  0  0  0  0  0
   -5.9217    8.1008  -23.4690 C   0  0  0  0  0  0  0  0  0  0  0  0
   -5.3247    6.3688  -18.2121 C   0  0  0  0  0  0  0  0  0  0  0  0
   -3.3436   10.5444  -24.4788 C   0  0  0  0  0  0  0  0  0  0  0  0
   -4.7381    7.5795  -17.9452 C   0  0  0  0  0  0  0  0  0  0  0  0
   -2.3476    9.2810  -20.8054 C   0  0  0  0  0  0  0  0  0  0  0  0
   -6.1132    5.8025  -17.2704 F   0  0  0  0  0  0  0  0  0  0  0  0
   -2.9272    6.7397  -24.4249 N   0  0  0  0  0  0  0  0  0  0  0  0
   -1.7700    6.4994  -22.6263 N   0  0  0  0  0  0  0  0  0  0  0  0
   -5.8513   10.1539  -24.1301 N   0  0  0  0  0  0  0  0  0  0  0  0
   -3.3434    9.3447  -18.6683 N   0  0  0  0  0  0  0  0  0  0  0  0
   -6.6261    9.1843  -23.7518 O   0  0  0  0  0  0  0  0  0  0  0  0
  1  9  2  0
  2  1  1  0
  2  3  2  0
  3 17  1  0
  3 23  1  0
  4 23  2  0
  5  2  1  0
  5 18  2  0
  6  7  1  0
  6 14  2  0
  7 16  1  0
  7 22  2  0
  9 15  1  0
 10  5  1  0
 10 11  2  0
 10 21  1  0
 11  6  1  0
 11 20  1  0
 12 21  1  0
 14  8  1  0
 14 24  1  0
 15 17  2  0
 15 19  1  0
 18  4  1  0
 20 12  2  0
 21 13  1  0
 22 24  1  0
M  END
$$$$
