
     RDKit          3D

 24 27  0  0  0  0  0  0  0  0999 V2000
   -3.0662    6.6690  -19.4301 C   0  0  0  0  0  0  0  0  0  0  0  0
   -3.9617    7.6936  -19.5520 C   0  0  0  0  0  0  0  0  0  0  0  0
   -4.4623    8.2932  -18.3867 C   0  0  0  0  0  0  0  0  0  0  0  0
   -5.7642    9.7664  -19.6695 C   0  0  0  0  0  0  0  0  0  0  0  0
   -4.3755    8.1446  -20.7829 C   0  0  0  0  0  0  0  0  0  0  0  0
   -5.8223    6.0054  -22.5442 C   0  0  0  0  0  0  0  0  0  0  0  0
   -6.0941    4.7920  -21.9633 C   0  0  0  0  0  0  0  0  0  0  0  0
   -7.2040    7.9460  -23.5426 C   0  0  0  0  0  0  0  0  0  0  0  0
   -2.6370    6.2034  -18.1960 C   0  0  0  0  0  0  0  0  0  0  0  0
   -3.8598    7.5114  -21.9981 C   0  0  0  0  0  0  0  0  0  0  0  0
   -4.4977    6.5661  -22.7685 C   0  0  0  0  0  0  0  0  0  0  0  0
   -2.5366    6.9936  -23.6418 C   0  0  0  0  0  0  0  0  0  0  0  0
   -1.6494    8.6968  -22.0630 C   0  0  0  0  0  0  0  0  0  0  0  0
   -7.0065    6.6089  -22.8834 C   0  0  0  0  0  0  0  0  0  0  0  0
   -3.1539    6.8203  -17.0880 C   0  0  0  0  0  0  0  0  0  0  0  0
   -5.1137    3.7877  -21.4359 C   0  0  0  0  0  0  0  0  0  0  0  0
   -4.0549    7.8525  -17.1513 C   0  0  0  0  0  0  0  0  0  0  0  0
   -5.2734    9.1777  -20.8323 C   0  0  0  0  0  0  0  0  0  0  0  0
   -2.7475    6.3806  -15.8753 F   0  0  0  0  0  0  0  0  0  0  0  0
   -3.6545    6.2730  -23.7674 N   0  0  0  0  0  0  0  0  0  0  0  0
   -2.6700    7.7520  -22.5528 N   0  0  0  0  0  0  0  0  0  0  0  0
   -7.4458    4.7030  -21.9714 N   0  0  0  0  0  0  0  0  0  0  0  0
   -5.3517    9.3153  -18.4790 N   0  0  0  0  0  0  0  0  0  0  0  0
   -7.9564    5.7675  -22.5096 O   0  0  0  0  0  0  0  0  0  0  0  0
  1  9  2  0
  2  1  1  0
  2  3  2  0
  3 17  1  0
  3 23  1  0
  4 23  2  0
  5  2  1  0
  5 18  2  0
  6  7  1  0
  6 14  2  0
  7 16  1  0
  7 22  2  0
  9 15  1  0
 10  5  1  0
 10 11  2  0
 10 21  1  0
 11  6  1  0
 11 20  1  0
 12 21  1  0
 14  8  1  0
 14 24  1  0
 15 17  2  0
 15 19  1  0
 18  4  1  0
 20 12  2  0
 21 13  1  0
 22 24  1  0
M  END
$$$$
