
     RDKit          3D

 24 27  0  0  0  0  0  0  0  0999 V2000
   -2.8412    7.5659  -19.9871 C   0  0  0  0  0  0  0  0  0  0  0  0
   -4.2005    7.5547  -20.1239 C   0  0  0  0  0  0  0  0  0  0  0  0
   -4.9899    7.9775  -19.0440 C   0  0  0  0  0  0  0  0  0  0  0  0
   -6.9452    7.5819  -20.2813 C   0  0  0  0  0  0  0  0  0  0  0  0
   -4.8028    7.1433  -21.2892 C   0  0  0  0  0  0  0  0  0  0  0  0
   -4.2795    8.6711  -23.9657 C   0  0  0  0  0  0  0  0  0  0  0  0
   -5.2078    8.9124  -24.9473 C   0  0  0  0  0  0  0  0  0  0  0  0
   -2.9389   10.0930  -22.2768 C   0  0  0  0  0  0  0  0  0  0  0  0
   -2.2177    7.9798  -18.8192 C   0  0  0  0  0  0  0  0  0  0  0  0
   -3.9781    6.6930  -22.4120 C   0  0  0  0  0  0  0  0  0  0  0  0
   -3.7538    7.3662  -23.5911 C   0  0  0  0  0  0  0  0  0  0  0  0
   -2.6752    5.4621  -23.6400 C   0  0  0  0  0  0  0  0  0  0  0  0
   -3.2637    4.4999  -21.4245 C   0  0  0  0  0  0  0  0  0  0  0  0
   -3.9225    9.8644  -23.3910 C   0  0  0  0  0  0  0  0  0  0  0  0
   -3.0304    8.3830  -17.7934 C   0  0  0  0  0  0  0  0  0  0  0  0
   -5.8811    7.9124  -25.8386 C   0  0  0  0  0  0  0  0  0  0  0  0
   -4.3995    8.3926  -17.8755 C   0  0  0  0  0  0  0  0  0  0  0  0
   -6.1706    7.1603  -21.3591 C   0  0  0  0  0  0  0  0  0  0  0  0
   -2.4412    8.7904  -16.6463 F   0  0  0  0  0  0  0  0  0  0  0  0
   -2.9502    6.5794  -24.3189 N   0  0  0  0  0  0  0  0  0  0  0  0
   -3.3101    5.5391  -22.4696 N   0  0  0  0  0  0  0  0  0  0  0  0
   -5.3817   10.2558  -24.9320 N   0  0  0  0  0  0  0  0  0  0  0  0
   -6.3434    7.9790  -19.1539 N   0  0  0  0  0  0  0  0  0  0  0  0
   -4.6268   10.7897  -24.0217 O   0  0  0  0  0  0  0  0  0  0  0  0
  1  9  2  0
  2  1  1  0
  2  3  2  0
  3 17  1  0
  3 23  1  0
  4 23  2  0
  5  2  1  0
  5 18  2  0
  6  7  1  0
  6 14  2  0
  7 16  1  0
  7 22  2  0
  9 15  1  0
 10  5  1  0
 10 11  2  0
 10 21  1  0
 11  6  1  0
 11 20  1  0
 12 21  1  0
 14  8  1  0
 14 24  1  0
 15 17  2  0
 15 19  1  0
 18  4  1  0
 20 12  2  0
 21 13  1  0
 22 24  1  0
M  END
$$$$
