
     RDKit          3D

 24 27  0  0  0  0  0  0  0  0999 V2000
   -5.1080    5.5551  -21.8064 C   0  0  0  0  0  0  0  0  0  0  0  0
   -5.5980    6.7506  -21.3623 C   0  0  0  0  0  0  0  0  0  0  0  0
   -6.9193    6.8051  -20.8940 C   0  0  0  0  0  0  0  0  0  0  0  0
   -6.6938    9.0970  -20.4386 C   0  0  0  0  0  0  0  0  0  0  0  0
   -4.8273    7.8890  -21.3636 C   0  0  0  0  0  0  0  0  0  0  0  0
   -2.2085    7.9572  -19.6581 C   0  0  0  0  0  0  0  0  0  0  0  0
   -1.7701    9.0453  -18.9457 C   0  0  0  0  0  0  0  0  0  0  0  0
   -3.0750    5.5888  -19.1001 C   0  0  0  0  0  0  0  0  0  0  0  0
   -5.8715    4.3971  -21.8099 C   0  0  0  0  0  0  0  0  0  0  0  0
   -3.4518    7.8329  -21.8618 C   0  0  0  0  0  0  0  0  0  0  0  0
   -2.3008    7.8681  -21.1083 C   0  0  0  0  0  0  0  0  0  0  0  0
   -1.7637    7.7214  -23.2252 C   0  0  0  0  0  0  0  0  0  0  0  0
   -4.0027    7.6781  -24.3047 C   0  0  0  0  0  0  0  0  0  0  0  0
   -2.5468    6.9597  -18.7794 C   0  0  0  0  0  0  0  0  0  0  0  0
   -7.1548    4.5007  -21.3436 C   0  0  0  0  0  0  0  0  0  0  0  0
   -1.2979   10.3632  -19.4823 C   0  0  0  0  0  0  0  0  0  0  0  0
   -7.6983    5.6739  -20.8859 C   0  0  0  0  0  0  0  0  0  0  0  0
   -5.3810    9.0535  -20.9016 C   0  0  0  0  0  0  0  0  0  0  0  0
   -7.9153    3.3822  -21.3387 F   0  0  0  0  0  0  0  0  0  0  0  0
   -1.2859    7.7978  -21.9799 N   0  0  0  0  0  0  0  0  0  0  0  0
   -3.0948    7.7434  -23.1447 N   0  0  0  0  0  0  0  0  0  0  0  0
   -1.8593    8.6644  -17.6487 N   0  0  0  0  0  0  0  0  0  0  0  0
   -7.4308    7.9799  -20.4443 N   0  0  0  0  0  0  0  0  0  0  0  0
   -2.3122    7.4508  -17.5736 O   0  0  0  0  0  0  0  0  0  0  0  0
  1  9  2  0
  2  1  1  0
  2  3  2  0
  3 17  1  0
  3 23  1  0
  4 23  2  0
  5  2  1  0
  5 18  2  0
  6  7  1  0
  6 14  2  0
  7 16  1  0
  7 22  2  0
  9 15  1  0
 10  5  1  0
 10 11  2  0
 10 21  1  0
 11  6  1  0
 11 20  1  0
 12 21  1  0
 14  8  1  0
 14 24  1  0
 15 17  2  0
 15 19  1  0
 18  4  1  0
 20 12  2  0
 21 13  1  0
 22 24  1  0
M  END
$$$$
