
     RDKit          3D

 24 27  0  0  0  0  0  0  0  0999 V2000
   -5.0981    7.4090  -20.0830 C   0  0  0  0  0  0  0  0  0  0  0  0
   -3.7950    7.6546  -20.4118 C   0  0  0  0  0  0  0  0  0  0  0  0
   -2.8620    7.8346  -19.3797 C   0  0  0  0  0  0  0  0  0  0  0  0
   -1.1442    8.1491  -20.9484 C   0  0  0  0  0  0  0  0  0  0  0  0
   -3.3849    7.7255  -21.7220 C   0  0  0  0  0  0  0  0  0  0  0  0
   -4.4802    5.0169  -22.8336 C   0  0  0  0  0  0  0  0  0  0  0  0
   -3.3132    4.3548  -23.1222 C   0  0  0  0  0  0  0  0  0  0  0  0
   -6.6237    4.5153  -21.4826 C   0  0  0  0  0  0  0  0  0  0  0  0
   -5.5280    7.3324  -18.7664 C   0  0  0  0  0  0  0  0  0  0  0  0
   -4.3614    7.5472  -22.7982 C   0  0  0  0  0  0  0  0  0  0  0  0
   -4.8378    6.3528  -23.2885 C   0  0  0  0  0  0  0  0  0  0  0  0
   -5.7708    7.9990  -24.3889 C   0  0  0  0  0  0  0  0  0  0  0  0
   -4.7329    9.9776  -23.2985 C   0  0  0  0  0  0  0  0  0  0  0  0
   -5.2619    4.2127  -22.0438 C   0  0  0  0  0  0  0  0  0  0  0  0
   -4.5806    7.5151  -17.7946 C   0  0  0  0  0  0  0  0  0  0  0  0
   -2.1630    4.8424  -23.9510 C   0  0  0  0  0  0  0  0  0  0  0  0
   -3.2596    7.7641  -18.0669 C   0  0  0  0  0  0  0  0  0  0  0  0
   -2.0625    7.9720  -21.9803 C   0  0  0  0  0  0  0  0  0  0  0  0
   -4.9801    7.4439  -16.5045 F   0  0  0  0  0  0  0  0  0  0  0  0
   -5.6999    6.6709  -24.2632 N   0  0  0  0  0  0  0  0  0  0  0  0
   -4.9458    8.5306  -23.4856 N   0  0  0  0  0  0  0  0  0  0  0  0
   -3.4308    3.1619  -22.4910 N   0  0  0  0  0  0  0  0  0  0  0  0
   -1.5598    8.0774  -19.6783 N   0  0  0  0  0  0  0  0  0  0  0  0
   -4.5688    3.0992  -21.8709 O   0  0  0  0  0  0  0  0  0  0  0  0
  1  9  2  0
  2  1  1  0
  2  3  2  0
  3 17  1  0
  3 23  1  0
  4 23  2  0
  5  2  1  0
  5 18  2  0
  6  7  1  0
  6 14  2  0
  7 16  1  0
  7 22  2  0
  9 15  1  0
 10  5  1  0
 10 11  2  0
 10 21  1  0
 11  6  1  0
 11 20  1  0
 12 21  1  0
 14  8  1  0
 14 24  1  0
 15 17  2  0
 15 19  1  0
 18  4  1  0
 20 12  2  0
 21 13  1  0
 22 24  1  0
M  END
$$$$
