
     RDKit          3D

 24 27  0  0  0  0  0  0  0  0999 V2000
   -4.4221    6.3849  -19.9774 C   0  0  0  0  0  0  0  0  0  0  0  0
   -3.5392    7.3530  -20.3646 C   0  0  0  0  0  0  0  0  0  0  0  0
   -3.1424    8.3175  -19.4263 C   0  0  0  0  0  0  0  0  0  0  0  0
   -1.7643    9.3465  -21.0239 C   0  0  0  0  0  0  0  0  0  0  0  0
   -3.0357    7.3976  -21.6430 C   0  0  0  0  0  0  0  0  0  0  0  0
   -5.5940    7.4894  -23.4370 C   0  0  0  0  0  0  0  0  0  0  0  0
   -6.9007    7.3632  -23.0367 C   0  0  0  0  0  0  0  0  0  0  0  0
   -4.1131    9.3726  -24.4025 C   0  0  0  0  0  0  0  0  0  0  0  0
   -4.9379    6.3245  -18.6911 C   0  0  0  0  0  0  0  0  0  0  0  0
   -3.4582    6.3963  -22.6241 C   0  0  0  0  0  0  0  0  0  0  0  0
   -4.5880    6.4376  -23.4089 C   0  0  0  0  0  0  0  0  0  0  0  0
   -3.4836    4.5984  -23.8439 C   0  0  0  0  0  0  0  0  0  0  0  0
   -1.5411    4.8091  -22.3067 C   0  0  0  0  0  0  0  0  0  0  0  0
   -5.3864    8.7736  -23.8723 C   0  0  0  0  0  0  0  0  0  0  0  0
   -4.5209    7.2877  -17.8115 C   0  0  0  0  0  0  0  0  0  0  0  0
   -7.5783    6.1431  -22.4890 C   0  0  0  0  0  0  0  0  0  0  0  0
   -3.6371    8.2820  -18.1455 C   0  0  0  0  0  0  0  0  0  0  0  0
   -2.1520    8.3939  -21.9629 C   0  0  0  0  0  0  0  0  0  0  0  0
   -5.0125    7.2457  -16.5522 F   0  0  0  0  0  0  0  0  0  0  0  0
   -4.5689    5.3175  -24.1435 N   0  0  0  0  0  0  0  0  0  0  0  0
   -2.8061    5.2674  -22.9098 N   0  0  0  0  0  0  0  0  0  0  0  0
   -7.4430    8.5869  -23.2458 N   0  0  0  0  0  0  0  0  0  0  0  0
   -2.2639    9.2893  -19.7837 N   0  0  0  0  0  0  0  0  0  0  0  0
   -6.5478    9.3910  -23.7310 O   0  0  0  0  0  0  0  0  0  0  0  0
  1  9  2  0
  2  1  1  0
  2  3  2  0
  3 17  1  0
  3 23  1  0
  4 23  2  0
  5  2  1  0
  5 18  2  0
  6  7  1  0
  6 14  2  0
  7 16  1  0
  7 22  2  0
  9 15  1  0
 10  5  1  0
 10 11  2  0
 10 21  1  0
 11  6  1  0
 11 20  1  0
 12 21  1  0
 14  8  1  0
 14 24  1  0
 15 17  2  0
 15 19  1  0
 18  4  1  0
 20 12  2  0
 21 13  1  0
 22 24  1  0
M  END
$$$$
