
     RDKit          3D

 24 27  0  0  0  0  0  0  0  0999 V2000
   -4.5224    6.6634  -19.6286 C   0  0  0  0  0  0  0  0  0  0  0  0
   -3.6387    7.5463  -20.1820 C   0  0  0  0  0  0  0  0  0  0  0  0
   -3.0595    8.5246  -19.3599 C   0  0  0  0  0  0  0  0  0  0  0  0
   -1.8433    9.3743  -21.1791 C   0  0  0  0  0  0  0  0  0  0  0  0
   -3.3081    7.4929  -21.5153 C   0  0  0  0  0  0  0  0  0  0  0  0
   -5.7559    7.8751  -23.4216 C   0  0  0  0  0  0  0  0  0  0  0  0
   -5.6672    8.6931  -24.5200 C   0  0  0  0  0  0  0  0  0  0  0  0
   -7.1009    7.8531  -21.2166 C   0  0  0  0  0  0  0  0  0  0  0  0
   -4.8651    6.7024  -18.2851 C   0  0  0  0  0  0  0  0  0  0  0  0
   -3.9207    6.4777  -22.3741 C   0  0  0  0  0  0  0  0  0  0  0  0
   -5.0016    6.6482  -23.2087 C   0  0  0  0  0  0  0  0  0  0  0  0
   -4.3140    4.5747  -23.3461 C   0  0  0  0  0  0  0  0  0  0  0  0
   -2.3977    4.5800  -21.7623 C   0  0  0  0  0  0  0  0  0  0  0  0
   -6.6741    8.4026  -22.5496 C   0  0  0  0  0  0  0  0  0  0  0  0
   -4.2738    7.6751  -17.5237 C   0  0  0  0  0  0  0  0  0  0  0  0
   -4.7957    8.5164  -25.7270 C   0  0  0  0  0  0  0  0  0  0  0  0
   -3.3805    8.5866  -18.0259 C   0  0  0  0  0  0  0  0  0  0  0  0
   -2.4128    8.4071  -22.0037 C   0  0  0  0  0  0  0  0  0  0  0  0
   -4.5950    7.7293  -16.2110 F   0  0  0  0  0  0  0  0  0  0  0  0
   -5.2131    5.4588  -23.7875 N   0  0  0  0  0  0  0  0  0  0  0  0
   -3.5235    5.2078  -22.4782 N   0  0  0  0  0  0  0  0  0  0  0  0
   -6.5430    9.6964  -24.2719 N   0  0  0  0  0  0  0  0  0  0  0  0
   -2.1760    9.4130  -19.8835 N   0  0  0  0  0  0  0  0  0  0  0  0
   -7.1171    9.5092  -23.1234 O   0  0  0  0  0  0  0  0  0  0  0  0
  1  9  2  0
  2  1  1  0
  2  3  2  0
  3 17  1  0
  3 23  1  0
  4 23  2  0
  5  2  1  0
  5 18  2  0
  6  7  1  0
  6 14  2  0
  7 16  1  0
  7 22  2  0
  9 15  1  0
 10  5  1  0
 10 11  2  0
 10 21  1  0
 11  6  1  0
 11 20  1  0
 12 21  1  0
 14  8  1  0
 14 24  1  0
 15 17  2  0
 15 19  1  0
 18  4  1  0
 20 12  2  0
 21 13  1  0
 22 24  1  0
M  END
$$$$
