
     RDKit          3D

 24 27  0  0  0  0  0  0  0  0999 V2000
   -3.2192    6.7806  -19.8709 C   0  0  0  0  0  0  0  0  0  0  0  0
   -4.2216    7.6061  -20.2957 C   0  0  0  0  0  0  0  0  0  0  0  0
   -5.0241    8.2407  -19.3358 C   0  0  0  0  0  0  0  0  0  0  0  0
   -6.2654    9.2932  -21.0275 C   0  0  0  0  0  0  0  0  0  0  0  0
   -4.4546    7.8258  -21.6325 C   0  0  0  0  0  0  0  0  0  0  0  0
   -4.8734    4.9589  -22.8060 C   0  0  0  0  0  0  0  0  0  0  0  0
   -4.7270    3.7921  -22.0983 C   0  0  0  0  0  0  0  0  0  0  0  0
   -6.8247    6.2299  -23.9233 C   0  0  0  0  0  0  0  0  0  0  0  0
   -2.9696    6.5498  -18.5261 C   0  0  0  0  0  0  0  0  0  0  0  0
   -3.6227    7.1551  -22.6334 C   0  0  0  0  0  0  0  0  0  0  0  0
   -3.8072    5.8907  -23.1443 C   0  0  0  0  0  0  0  0  0  0  0  0
   -2.0308    6.7797  -24.0638 C   0  0  0  0  0  0  0  0  0  0  0  0
   -1.9636    9.0081  -22.9636 C   0  0  0  0  0  0  0  0  0  0  0  0
   -6.1937    5.1070  -23.1474 C   0  0  0  0  0  0  0  0  0  0  0  0
   -3.7795    7.1915  -17.6275 C   0  0  0  0  0  0  0  0  0  0  0  0
   -3.4663    3.2213  -21.5217 C   0  0  0  0  0  0  0  0  0  0  0  0
   -4.7997    8.0305  -17.9972 C   0  0  0  0  0  0  0  0  0  0  0  0
   -5.4745    8.6679  -21.9883 C   0  0  0  0  0  0  0  0  0  0  0  0
   -3.5519    6.9794  -16.3113 F   0  0  0  0  0  0  0  0  0  0  0  0
   -2.8109    5.6961  -24.0184 N   0  0  0  0  0  0  0  0  0  0  0  0
   -2.5357    7.6718  -23.2104 N   0  0  0  0  0  0  0  0  0  0  0  0
   -5.9756    3.2703  -22.0356 N   0  0  0  0  0  0  0  0  0  0  0  0
   -6.0258    9.0684  -19.7303 N   0  0  0  0  0  0  0  0  0  0  0  0
   -6.8122    4.0485  -22.6504 O   0  0  0  0  0  0  0  0  0  0  0  0
  1  9  2  0
  2  1  1  0
  2  3  2  0
  3 17  1  0
  3 23  1  0
  4 23  2  0
  5  2  1  0
  5 18  2  0
  6  7  1  0
  6 14  2  0
  7 16  1  0
  7 22  2  0
  9 15  1  0
 10  5  1  0
 10 11  2  0
 10 21  1  0
 11  6  1  0
 11 20  1  0
 12 21  1  0
 14  8  1  0
 14 24  1  0
 15 17  2  0
 15 19  1  0
 18  4  1  0
 20 12  2  0
 21 13  1  0
 22 24  1  0
M  END
$$$$
