
     RDKit          3D

 24 27  0  0  0  0  0  0  0  0999 V2000
   -6.9392   22.8809  -24.9290 C   0  0  0  0  0  0  0  0  0  0  0  0
   -6.2855   22.3401  -23.8581 C   0  0  0  0  0  0  0  0  0  0  0  0
   -4.9046   22.5538  -23.7335 C   0  0  0  0  0  0  0  0  0  0  0  0
   -4.8621   21.3074  -21.7447 C   0  0  0  0  0  0  0  0  0  0  0  0
   -6.9495   21.5999  -22.9089 C   0  0  0  0  0  0  0  0  0  0  0  0
   -9.2521   23.3438  -21.7137 C   0  0  0  0  0  0  0  0  0  0  0  0
   -9.2270   24.6290  -22.1945 C   0  0  0  0  0  0  0  0  0  0  0  0
   -9.0834   22.2164  -19.3959 C   0  0  0  0  0  0  0  0  0  0  0  0
   -6.2846   23.6317  -25.8943 C   0  0  0  0  0  0  0  0  0  0  0  0
   -8.3889   21.3693  -23.0455 C   0  0  0  0  0  0  0  0  0  0  0  0
   -9.4000   22.1366  -22.5137 C   0  0  0  0  0  0  0  0  0  0  0  0
  -10.2791   20.4644  -23.6192 C   0  0  0  0  0  0  0  0  0  0  0  0
   -8.2484   19.2897  -24.4422 C   0  0  0  0  0  0  0  0  0  0  0  0
   -9.1130   23.3788  -20.3494 C   0  0  0  0  0  0  0  0  0  0  0  0
   -4.9373   23.8124  -25.7292 C   0  0  0  0  0  0  0  0  0  0  0  0
   -9.3452   25.0772  -23.6203 C   0  0  0  0  0  0  0  0  0  0  0  0
   -4.2307   23.2933  -24.6745 C   0  0  0  0  0  0  0  0  0  0  0  0
   -6.2328   21.0893  -21.8593 C   0  0  0  0  0  0  0  0  0  0  0  0
   -4.2811   24.5419  -26.6600 F   0  0  0  0  0  0  0  0  0  0  0  0
  -10.5449   21.5497  -22.8870 N   0  0  0  0  0  0  0  0  0  0  0  0
   -8.9526   20.3600  -23.7124 N   0  0  0  0  0  0  0  0  0  0  0  0
   -9.0722   25.4038  -21.0942 N   0  0  0  0  0  0  0  0  0  0  0  0
   -4.2306   22.0299  -22.6774 N   0  0  0  0  0  0  0  0  0  0  0  0
   -9.0081   24.6591  -20.0336 O   0  0  0  0  0  0  0  0  0  0  0  0
  1  9  2  0
  2  1  1  0
  2  3  2  0
  3 17  1  0
  3 23  1  0
  4 23  2  0
  5  2  1  0
  5 18  2  0
  6  7  1  0
  6 14  2  0
  7 16  1  0
  7 22  2  0
  9 15  1  0
 10  5  1  0
 10 11  2  0
 10 21  1  0
 11  6  1  0
 11 20  1  0
 12 21  1  0
 14  8  1  0
 14 24  1  0
 15 17  2  0
 15 19  1  0
 18  4  1  0
 20 12  2  0
 21 13  1  0
 22 24  1  0
M  END
$$$$
