
     RDKit          3D

 24 27  0  0  0  0  0  0  0  0999 V2000
   -2.2604    8.1990  -18.7865 C   0  0  0  0  0  0  0  0  0  0  0  0
   -3.4904    7.6249  -18.9419 C   0  0  0  0  0  0  0  0  0  0  0  0
   -4.0253    6.8798  -17.8803 C   0  0  0  0  0  0  0  0  0  0  0  0
   -5.9576    6.4270  -19.1340 C   0  0  0  0  0  0  0  0  0  0  0  0
   -4.2072    7.7642  -20.1066 C   0  0  0  0  0  0  0  0  0  0  0  0
   -3.0264    6.6287  -22.7690 C   0  0  0  0  0  0  0  0  0  0  0  0
   -3.7962    6.0007  -23.7158 C   0  0  0  0  0  0  0  0  0  0  0  0
   -1.1154    5.9497  -21.1695 C   0  0  0  0  0  0  0  0  0  0  0  0
   -1.5252    8.0698  -17.6174 C   0  0  0  0  0  0  0  0  0  0  0  0
   -3.6435    8.5337  -21.2173 C   0  0  0  0  0  0  0  0  0  0  0  0
   -3.1200    8.0302  -22.3862 C   0  0  0  0  0  0  0  0  0  0  0  0
   -2.9760   10.2141  -22.4223 C   0  0  0  0  0  0  0  0  0  0  0  0
   -3.9792   10.8151  -20.2284 C   0  0  0  0  0  0  0  0  0  0  0  0
   -2.1496    5.7182  -22.2362 C   0  0  0  0  0  0  0  0  0  0  0  0
   -2.0891    7.3332  -16.6101 C   0  0  0  0  0  0  0  0  0  0  0  0
   -4.8844    6.5980  -24.5566 C   0  0  0  0  0  0  0  0  0  0  0  0
   -3.3193    6.7353  -16.7111 C   0  0  0  0  0  0  0  0  0  0  0  0
   -5.4355    7.1644  -20.1937 C   0  0  0  0  0  0  0  0  0  0  0  0
   -1.3876    7.1958  -15.4619 F   0  0  0  0  0  0  0  0  0  0  0  0
   -2.7206    9.0913  -23.0998 N   0  0  0  0  0  0  0  0  0  0  0  0
   -3.5430    9.8637  -21.2670 N   0  0  0  0  0  0  0  0  0  0  0  0
   -3.3542    4.7202  -23.7229 N   0  0  0  0  0  0  0  0  0  0  0  0
   -5.2469    6.3006  -18.0071 N   0  0  0  0  0  0  0  0  0  0  0  0
   -2.3984    4.5769  -22.8571 O   0  0  0  0  0  0  0  0  0  0  0  0
  1  9  2  0
  2  1  1  0
  2  3  2  0
  3 17  1  0
  3 23  1  0
  4 23  2  0
  5  2  1  0
  5 18  2  0
  6  7  1  0
  6 14  2  0
  7 16  1  0
  7 22  2  0
  9 15  1  0
 10  5  1  0
 10 11  2  0
 10 21  1  0
 11  6  1  0
 11 20  1  0
 12 21  1  0
 14  8  1  0
 14 24  1  0
 15 17  2  0
 15 19  1  0
 18  4  1  0
 20 12  2  0
 21 13  1  0
 22 24  1  0
M  END
$$$$
