
     RDKit          3D

 24 27  0  0  0  0  0  0  0  0999 V2000
   -2.7252    6.8924  -19.5291 C   0  0  0  0  0  0  0  0  0  0  0  0
   -3.9000    7.4418  -19.9588 C   0  0  0  0  0  0  0  0  0  0  0  0
   -4.8159    7.9063  -19.0030 C   0  0  0  0  0  0  0  0  0  0  0  0
   -6.2943    8.5711  -20.7009 C   0  0  0  0  0  0  0  0  0  0  0  0
   -4.1971    7.5489  -21.2967 C   0  0  0  0  0  0  0  0  0  0  0  0
   -4.5786    5.1057  -23.2090 C   0  0  0  0  0  0  0  0  0  0  0  0
   -5.3526    4.8976  -24.3231 C   0  0  0  0  0  0  0  0  0  0  0  0
   -4.5641    4.2683  -20.7656 C   0  0  0  0  0  0  0  0  0  0  0  0
   -2.4092    6.7788  -18.1833 C   0  0  0  0  0  0  0  0  0  0  0  0
   -3.2447    7.0547  -22.2928 C   0  0  0  0  0  0  0  0  0  0  0  0
   -3.4140    5.9755  -23.1299 C   0  0  0  0  0  0  0  0  0  0  0  0
   -1.4517    6.8696  -23.5059 C   0  0  0  0  0  0  0  0  0  0  0  0
   -1.4420    8.7503  -21.8802 C   0  0  0  0  0  0  0  0  0  0  0  0
   -5.0822    4.3590  -22.1743 C   0  0  0  0  0  0  0  0  0  0  0  0
   -3.3348    7.2461  -17.2888 C   0  0  0  0  0  0  0  0  0  0  0  0
   -5.1813    5.5015  -25.6846 C   0  0  0  0  0  0  0  0  0  0  0  0
   -4.5293    7.8066  -17.6635 C   0  0  0  0  0  0  0  0  0  0  0  0
   -5.3919    8.1129  -21.6576 C   0  0  0  0  0  0  0  0  0  0  0  0
   -3.0449    7.1443  -15.9717 F   0  0  0  0  0  0  0  0  0  0  0  0
   -2.2930    5.8936  -23.8587 N   0  0  0  0  0  0  0  0  0  0  0  0
   -2.0432    7.5788  -22.5436 N   0  0  0  0  0  0  0  0  0  0  0  0
   -6.3063    4.0241  -23.9198 N   0  0  0  0  0  0  0  0  0  0  0  0
   -5.9901    8.4592  -19.4025 N   0  0  0  0  0  0  0  0  0  0  0  0
   -6.1318    3.7240  -22.6696 O   0  0  0  0  0  0  0  0  0  0  0  0
  1  9  2  0
  2  1  1  0
  2  3  2  0
  3 17  1  0
  3 23  1  0
  4 23  2  0
  5  2  1  0
  5 18  2  0
  6  7  1  0
  6 14  2  0
  7 16  1  0
  7 22  2  0
  9 15  1  0
 10  5  1  0
 10 11  2  0
 10 21  1  0
 11  6  1  0
 11 20  1  0
 12 21  1  0
 14  8  1  0
 14 24  1  0
 15 17  2  0
 15 19  1  0
 18  4  1  0
 20 12  2  0
 21 13  1  0
 22 24  1  0
M  END
$$$$
