
     RDKit          3D

 24 27  0  0  0  0  0  0  0  0999 V2000
   -2.9019    6.6046  -18.8425 C   0  0  0  0  0  0  0  0  0  0  0  0
   -4.2291    6.4319  -19.1164 C   0  0  0  0  0  0  0  0  0  0  0  0
   -5.1269    6.3032  -18.0460 C   0  0  0  0  0  0  0  0  0  0  0  0
   -6.9233    6.0854  -19.5414 C   0  0  0  0  0  0  0  0  0  0  0  0
   -4.6968    6.3846  -20.4082 C   0  0  0  0  0  0  0  0  0  0  0  0
   -3.2918    8.9959  -21.3975 C   0  0  0  0  0  0  0  0  0  0  0  0
   -2.3312    9.6853  -20.7008 C   0  0  0  0  0  0  0  0  0  0  0  0
   -5.7255    9.4310  -22.1454 C   0  0  0  0  0  0  0  0  0  0  0  0
   -2.4140    6.6565  -17.5450 C   0  0  0  0  0  0  0  0  0  0  0  0
   -3.7575    6.5091  -21.5244 C   0  0  0  0  0  0  0  0  0  0  0  0
   -3.1445    7.6615  -21.9604 C   0  0  0  0  0  0  0  0  0  0  0  0
   -2.5018    5.9907  -23.2201 C   0  0  0  0  0  0  0  0  0  0  0  0
   -3.7499    4.0946  -22.2065 C   0  0  0  0  0  0  0  0  0  0  0  0
   -4.4214    9.7701  -21.4780 C   0  0  0  0  0  0  0  0  0  0  0  0
   -3.3288    6.5260  -16.5344 C   0  0  0  0  0  0  0  0  0  0  0  0
   -0.9402    9.2359  -20.3675 C   0  0  0  0  0  0  0  0  0  0  0  0
   -4.6718    6.3508  -16.7510 C   0  0  0  0  0  0  0  0  0  0  0  0
   -6.0403    6.2120  -20.6109 C   0  0  0  0  0  0  0  0  0  0  0  0
   -2.8726    6.5741  -15.2621 F   0  0  0  0  0  0  0  0  0  0  0  0
   -2.3822    7.3034  -23.0021 N   0  0  0  0  0  0  0  0  0  0  0  0
   -3.3482    5.5096  -22.3084 N   0  0  0  0  0  0  0  0  0  0  0  0
   -2.9185   10.8634  -20.3811 N   0  0  0  0  0  0  0  0  0  0  0  0
   -6.4519    6.1332  -18.2898 N   0  0  0  0  0  0  0  0  0  0  0  0
   -4.1313   10.8928  -20.8413 O   0  0  0  0  0  0  0  0  0  0  0  0
  1  9  2  0
  2  1  1  0
  2  3  2  0
  3 17  1  0
  3 23  1  0
  4 23  2  0
  5  2  1  0
  5 18  2  0
  6  7  1  0
  6 14  2  0
  7 16  1  0
  7 22  2  0
  9 15  1  0
 10  5  1  0
 10 11  2  0
 10 21  1  0
 11  6  1  0
 11 20  1  0
 12 21  1  0
 14  8  1  0
 14 24  1  0
 15 17  2  0
 15 19  1  0
 18  4  1  0
 20 12  2  0
 21 13  1  0
 22 24  1  0
M  END
$$$$
