
     RDKit          3D

 24 27  0  0  0  0  0  0  0  0999 V2000
   -4.7803    6.6780  -20.0389 C   0  0  0  0  0  0  0  0  0  0  0  0
   -3.6572    7.4292  -20.2406 C   0  0  0  0  0  0  0  0  0  0  0  0
   -3.2094    8.2631  -19.2051 C   0  0  0  0  0  0  0  0  0  0  0  0
   -1.4074    8.9838  -20.5258 C   0  0  0  0  0  0  0  0  0  0  0  0
   -2.9634    7.3819  -21.4264 C   0  0  0  0  0  0  0  0  0  0  0  0
   -5.3224    7.9618  -23.3938 C   0  0  0  0  0  0  0  0  0  0  0  0
   -6.6800    7.9879  -23.1937 C   0  0  0  0  0  0  0  0  0  0  0  0
   -3.4770    9.6994  -23.8905 C   0  0  0  0  0  0  0  0  0  0  0  0
   -5.4906    6.7126  -18.8480 C   0  0  0  0  0  0  0  0  0  0  0  0
   -3.4374    6.5186  -22.5098 C   0  0  0  0  0  0  0  0  0  0  0  0
   -4.4797    6.7750  -23.3711 C   0  0  0  0  0  0  0  0  0  0  0  0
   -3.6110    4.8267  -23.8619 C   0  0  0  0  0  0  0  0  0  0  0  0
   -1.7953    4.6518  -22.1727 C   0  0  0  0  0  0  0  0  0  0  0  0
   -4.8838    9.2414  -23.6215 C   0  0  0  0  0  0  0  0  0  0  0  0
   -5.0145    7.5417  -17.8676 C   0  0  0  0  0  0  0  0  0  0  0  0
   -7.5876    6.8288  -22.9103 C   0  0  0  0  0  0  0  0  0  0  0  0
   -3.8930    8.3174  -18.0151 C   0  0  0  0  0  0  0  0  0  0  0  0
   -1.8437    8.1593  -21.5600 C   0  0  0  0  0  0  0  0  0  0  0  0
   -5.6933    7.5892  -16.6987 F   0  0  0  0  0  0  0  0  0  0  0  0
   -4.5556    5.7142  -24.1857 N   0  0  0  0  0  0  0  0  0  0  0  0
   -2.9280    5.3277  -22.8316 N   0  0  0  0  0  0  0  0  0  0  0  0
   -7.0184    9.2946  -23.3084 N   0  0  0  0  0  0  0  0  0  0  0  0
   -2.0943    9.0186  -19.3778 N   0  0  0  0  0  0  0  0  0  0  0  0
   -5.9618   10.0056  -23.5568 O   0  0  0  0  0  0  0  0  0  0  0  0
  1  9  2  0
  2  1  1  0
  2  3  2  0
  3 17  1  0
  3 23  1  0
  4 23  2  0
  5  2  1  0
  5 18  2  0
  6  7  1  0
  6 14  2  0
  7 16  1  0
  7 22  2  0
  9 15  1  0
 10  5  1  0
 10 11  2  0
 10 21  1  0
 11  6  1  0
 11 20  1  0
 12 21  1  0
 14  8  1  0
 14 24  1  0
 15 17  2  0
 15 19  1  0
 18  4  1  0
 20 12  2  0
 21 13  1  0
 22 24  1  0
M  END
$$$$
