
     RDKit          3D

 24 27  0  0  0  0  0  0  0  0999 V2000
   -3.6280    7.1505  -19.4856 C   0  0  0  0  0  0  0  0  0  0  0  0
   -4.7639    6.5871  -19.9944 C   0  0  0  0  0  0  0  0  0  0  0  0
   -5.8507    6.3677  -19.1348 C   0  0  0  0  0  0  0  0  0  0  0  0
   -7.1040    5.4655  -20.9027 C   0  0  0  0  0  0  0  0  0  0  0  0
   -4.8615    6.2368  -21.3202 C   0  0  0  0  0  0  0  0  0  0  0  0
   -3.9995    8.9406  -22.6311 C   0  0  0  0  0  0  0  0  0  0  0  0
   -3.4800   10.0246  -21.9687 C   0  0  0  0  0  0  0  0  0  0  0  0
   -6.1805    8.4044  -23.9068 C   0  0  0  0  0  0  0  0  0  0  0  0
   -3.5140    7.5114  -18.1511 C   0  0  0  0  0  0  0  0  0  0  0  0
   -3.7231    6.4572  -22.2141 C   0  0  0  0  0  0  0  0  0  0  0  0
   -3.3493    7.6482  -22.7934 C   0  0  0  0  0  0  0  0  0  0  0  0
   -1.9606    6.0795  -23.4272 C   0  0  0  0  0  0  0  0  0  0  0  0
   -2.8775    4.0951  -22.2430 C   0  0  0  0  0  0  0  0  0  0  0  0
   -5.2387    9.2714  -23.1178 C   0  0  0  0  0  0  0  0  0  0  0  0
   -4.6011    7.2774  -17.3519 C   0  0  0  0  0  0  0  0  0  0  0  0
   -2.1538   10.1274  -21.2772 C   0  0  0  0  0  0  0  0  0  0  0  0
   -5.7658    6.7153  -17.8087 C   0  0  0  0  0  0  0  0  0  0  0  0
   -6.0309    5.6789  -21.7643 C   0  0  0  0  0  0  0  0  0  0  0  0
   -4.5095    7.6227  -16.0474 F   0  0  0  0  0  0  0  0  0  0  0  0
   -2.2643    7.3763  -23.5305 N   0  0  0  0  0  0  0  0  0  0  0  0
   -2.8610    5.5213  -22.6169 N   0  0  0  0  0  0  0  0  0  0  0  0
   -4.4318   10.9822  -22.0789 N   0  0  0  0  0  0  0  0  0  0  0  0
   -6.9928    5.8117  -19.6149 N   0  0  0  0  0  0  0  0  0  0  0  0
   -5.4444   10.5251  -22.7493 O   0  0  0  0  0  0  0  0  0  0  0  0
  1  9  2  0
  2  1  1  0
  2  3  2  0
  3 17  1  0
  3 23  1  0
  4 23  2  0
  5  2  1  0
  5 18  2  0
  6  7  1  0
  6 14  2  0
  7 16  1  0
  7 22  2  0
  9 15  1  0
 10  5  1  0
 10 11  2  0
 10 21  1  0
 11  6  1  0
 11 20  1  0
 12 21  1  0
 14  8  1  0
 14 24  1  0
 15 17  2  0
 15 19  1  0
 18  4  1  0
 20 12  2  0
 21 13  1  0
 22 24  1  0
M  END
$$$$
