
     RDKit          3D

 24 27  0  0  0  0  0  0  0  0999 V2000
   -4.4490    6.0906  -19.3012 C   0  0  0  0  0  0  0  0  0  0  0  0
   -3.8924    7.2696  -19.7095 C   0  0  0  0  0  0  0  0  0  0  0  0
   -3.5935    8.2434  -18.7448 C   0  0  0  0  0  0  0  0  0  0  0  0
   -2.7663    9.6786  -20.4081 C   0  0  0  0  0  0  0  0  0  0  0  0
   -3.6206    7.5161  -21.0343 C   0  0  0  0  0  0  0  0  0  0  0  0
   -5.9479    7.6134  -23.1190 C   0  0  0  0  0  0  0  0  0  0  0  0
   -6.0994    8.4002  -24.2333 C   0  0  0  0  0  0  0  0  0  0  0  0
   -7.0782    7.4208  -20.8045 C   0  0  0  0  0  0  0  0  0  0  0  0
   -4.7276    5.8253  -17.9685 C   0  0  0  0  0  0  0  0  0  0  0  0
   -3.9422    6.5030  -22.0412 C   0  0  0  0  0  0  0  0  0  0  0  0
   -4.9707    6.5468  -22.9544 C   0  0  0  0  0  0  0  0  0  0  0  0
   -3.8553    4.6829  -23.2247 C   0  0  0  0  0  0  0  0  0  0  0  0
   -2.1039    4.8927  -21.4728 C   0  0  0  0  0  0  0  0  0  0  0  0
   -6.8697    7.9962  -22.1781 C   0  0  0  0  0  0  0  0  0  0  0  0
   -4.4182    6.8064  -17.0646 C   0  0  0  0  0  0  0  0  0  0  0  0
   -5.3142    8.3439  -25.5092 C   0  0  0  0  0  0  0  0  0  0  0  0
   -3.8587    8.0078  -17.4179 C   0  0  0  0  0  0  0  0  0  0  0  0
   -3.0594    8.7186  -21.3735 C   0  0  0  0  0  0  0  0  0  0  0  0
   -4.6823    6.5665  -15.7600 F   0  0  0  0  0  0  0  0  0  0  0  0
   -4.8851    5.4129  -23.6625 N   0  0  0  0  0  0  0  0  0  0  0  0
   -3.2809    5.3590  -22.2287 N   0  0  0  0  0  0  0  0  0  0  0  0
   -7.1171    9.2393  -23.9247 N   0  0  0  0  0  0  0  0  0  0  0  0
   -3.0375    9.4232  -19.1227 N   0  0  0  0  0  0  0  0  0  0  0  0
   -7.5503    8.9886  -22.7276 O   0  0  0  0  0  0  0  0  0  0  0  0
  1  9  2  0
  2  1  1  0
  2  3  2  0
  3 17  1  0
  3 23  1  0
  4 23  2  0
  5  2  1  0
  5 18  2  0
  6  7  1  0
  6 14  2  0
  7 16  1  0
  7 22  2  0
  9 15  1  0
 10  5  1  0
 10 11  2  0
 10 21  1  0
 11  6  1  0
 11 20  1  0
 12 21  1  0
 14  8  1  0
 14 24  1  0
 15 17  2  0
 15 19  1  0
 18  4  1  0
 20 12  2  0
 21 13  1  0
 22 24  1  0
M  END
$$$$
