
     RDKit          3D

 64 65  0  0  0  0  0  0  0  0999 V2000
   95.8883  220.6546  320.5871 C   0  0  1  0  0  0  0  0  0  0  0  0
   98.3549  220.5986  318.7515 C   0  0  0  0  0  0  0  0  0  0  0  0
   96.9322  220.0755  318.4654 C   0  0  2  0  0  0  0  0  0  0  0  0
   96.0265  221.0368  317.6444 C   0  0  1  0  0  0  0  0  0  0  0  0
   94.9098  221.6378  318.5291 C   0  0  1  0  0  0  0  0  0  0  0  0
   95.5056  221.9843  319.8906 C   0  0  1  0  0  0  0  0  0  0  0  0
   86.0354  204.8859  322.7212 C   0  0  0  0  0  0  0  0  0  0  0  0
   87.5168  205.2269  322.6554 C   0  0  0  0  0  0  0  0  0  0  0  0
   88.0026  206.0826  323.8281 C   0  0  0  0  0  0  0  0  0  0  0  0
   89.5177  206.3055  323.8281 C   0  0  0  0  0  0  0  0  0  0  0  0
   89.9648  207.0944  325.0587 C   0  0  0  0  0  0  0  0  0  0  0  0
   91.4071  207.6105  324.9908 C   0  0  0  0  0  0  0  0  0  0  0  0
   91.8754  208.4198  326.2060 C   0  0  0  0  0  0  0  0  0  0  0  0
   91.7278  209.9336  326.0303 C   0  0  0  0  0  0  0  0  0  0  0  0
   90.7653  210.2689  324.8876 C   0  0  0  0  0  0  0  0  0  0  0  0
   91.3975  211.2570  323.9034 C   0  0  0  0  0  0  0  0  0  0  0  0
   91.0896  212.7042  324.2885 C   0  0  0  0  0  0  0  0  0  0  0  0
   91.5233  213.7423  323.2500 C   0  0  0  0  0  0  0  0  0  0  0  0
   91.1856  215.2061  323.5546 C   0  0  0  0  0  0  0  0  0  0  0  0
   91.6821  216.2078  322.5023 C   0  0  0  0  0  0  0  0  0  0  0  0
   91.2618  217.6508  322.8300 C   0  0  1  0  0  0  0  0  0  0  0  0
   91.0179  217.7546  324.2345 O   0  0  0  0  0  0  0  0  0  0  0  0
   92.3216  218.7030  322.4038 C   0  0  1  0  0  0  0  0  0  0  0  0
   93.1039  219.0480  323.5601 O   0  0  0  0  0  0  0  0  0  0  0  0
   93.2440  218.2296  321.2437 C   0  0  2  0  0  0  0  0  0  0  0  0
   94.7012  218.7218  321.3696 C   0  0  0  0  0  0  0  0  0  0  0  0
   94.7247  220.1544  321.2543 O   0  0  0  0  0  0  0  0  0  0  0  0
   94.6032  222.8055  320.6557 O   0  0  0  0  0  0  0  0  0  0  0  0
   94.3113  222.8188  317.9665 O   0  0  0  0  0  0  0  0  0  0  0  0
   96.2768  219.6360  319.6607 O   0  0  0  0  0  0  0  0  0  0  0  0
   99.2834  219.5143  318.7473 O   0  0  0  0  0  0  0  0  0  0  0  0
   96.8366  222.0776  317.0764 O   0  0  0  0  0  0  0  0  0  0  0  0
   96.9375  222.0355  315.6542 C   0  0  0  0  0  0  0  0  0  0  0  0
   95.5760  222.2109  315.0601 C   0  0  2  0  0  0  0  0  0  0  0  0
   95.3951  223.0302  313.8098 C   0  0  0  0  0  0  0  0  0  0  0  0
   94.8583  223.5343  315.1193 C   0  0  0  0  0  0  0  0  0  0  0  0
   92.6886  218.5203  319.9018 N   0  0  0  0  0  0  0  0  0  0  0  0
   91.4157  218.1711  319.5051 C   0  0  0  0  0  0  0  0  0  0  0  0
   90.4149  218.8341  319.7415 O   0  0  0  0  0  0  0  0  0  0  0  0
   91.3583  216.8388  318.7755 C   0  0  0  0  0  0  0  0  0  0  0  0
   89.9217  216.4707  318.4064 C   0  0  0  0  0  0  0  0  0  0  0  0
   89.2070  215.7697  319.5622 C   0  0  0  0  0  0  0  0  0  0  0  0
   87.7245  215.5591  319.2498 C   0  0  0  0  0  0  0  0  0  0  0  0
   87.5338  214.6124  318.0628 C   0  0  0  0  0  0  0  0  0  0  0  0
   86.0580  214.2565  317.8623 C   0  0  0  0  0  0  0  0  0  0  0  0
   85.8353  212.7853  317.4979 C   0  0  0  0  0  0  0  0  0  0  0  0
   86.0758  211.8228  318.6642 C   0  0  0  0  0  0  0  0  0  0  0  0
   85.8686  210.3703  318.2241 C   0  0  0  0  0  0  0  0  0  0  0  0
   85.8446  209.3647  319.3795 C   0  0  0  0  0  0  0  0  0  0  0  0
   86.8329  209.6110  320.5273 C   0  0  0  0  0  0  0  0  0  0  0  0
   86.6594  208.7071  321.7558 C   0  0  0  0  0  0  0  0  0  0  0  0
   86.8164  209.3584  323.1306 C   0  0  0  0  0  0  0  0  0  0  0  0
   85.7925  208.8670  324.1545 C   0  0  0  0  0  0  0  0  0  0  0  0
   86.0546  209.4586  325.5414 C   0  0  0  0  0  0  0  0  0  0  0  0
   85.1307  210.6352  325.8711 C   0  0  0  0  0  0  0  0  0  0  0  0
   83.7622  210.2607  326.4485 C   0  0  0  0  0  0  0  0  0  0  0  0
   82.5574  210.6822  325.6017 C   0  0  0  0  0  0  0  0  0  0  0  0
   81.2823  211.0011  326.3890 C   0  0  0  0  0  0  0  0  0  0  0  0
   80.0856  211.4509  325.5443 C   0  0  0  0  0  0  0  0  0  0  0  0
   78.7926  211.7055  326.3249 C   0  0  0  0  0  0  0  0  0  0  0  0
   78.6396  213.1050  326.9277 C   0  0  0  0  0  0  0  0  0  0  0  0
   77.3496  213.3940  327.7037 C   0  0  0  0  0  0  0  0  0  0  0  0
   77.2422  214.7856  328.3315 C   0  0  0  0  0  0  0  0  0  0  0  0
   75.8544  215.1714  328.8142 C   0  0  0  0  0  0  0  0  0  0  0  0
  1  6  1  0
  1 27  1  6
  1 30  1  0
  3  2  1  1
  2 31  1  0
  3  4  1  0
 30  3  1  0
  5  4  1  0
  4 32  1  1
  6  5  1  0
  5 29  1  6
  6 28  1  1
  8  7  1  0
  9  8  1  0
 10  9  1  0
 11 10  1  0
 12 11  1  0
 13 12  1  0
 14 13  1  0
 15 14  1  0
 16 15  1  0
 17 16  1  0
 18 17  1  0
 19 18  1  0
 20 19  1  0
 21 20  1  0
 21 22  1  1
 23 21  1  0
 23 24  1  1
 25 23  1  0
 25 26  1  1
 25 37  1  0
 26 27  1  0
 32 33  1  0
 34 33  1  1
 34 35  1  0
 34 36  1  0
 35 36  1  0
 37 38  1  0
 38 39  2  0
 38 40  1  0
 40 41  1  0
 41 42  1  0
 42 43  1  0
 43 44  1  0
 44 45  1  0
 45 46  1  0
 46 47  1  0
 47 48  1  0
 48 49  1  0
 49 50  1  0
 50 51  1  0
 51 52  1  0
 52 53  1  0
 53 54  1  0
 54 55  1  0
 55 56  1  0
 56 57  1  0
 57 58  1  0
 58 59  1  0
 59 60  1  0
 60 61  1  0
 61 62  1  0
 62 63  1  0
 63 64  1  0
M  END
$$$$
