
     RDKit          3D

 64 65  0  0  0  0  0  0  0  0999 V2000
   95.7389  218.9630  323.8546 C   0  0  1  0  0  0  0  0  0  0  0  0
   96.3247  216.5673  325.6914 C   0  0  0  0  0  0  0  0  0  0  0  0
   96.3019  216.6130  324.1497 C   0  0  2  0  0  0  0  0  0  0  0  0
   97.6936  216.7591  323.4714 C   0  0  1  0  0  0  0  0  0  0  0  0
   97.8622  218.1641  322.8481 C   0  0  1  0  0  0  0  0  0  0  0  0
   97.2702  219.1927  323.8075 C   0  0  1  0  0  0  0  0  0  0  0  0
   79.2203  224.2258  315.0469 C   0  0  0  0  0  0  0  0  0  0  0  0
   80.4706  223.5484  315.5880 C   0  0  0  0  0  0  0  0  0  0  0  0
   80.1762  222.3765  316.5280 C   0  0  0  0  0  0  0  0  0  0  0  0
   81.4388  221.7391  317.1149 C   0  0  0  0  0  0  0  0  0  0  0  0
   81.5468  220.2629  316.7332 C   0  0  0  0  0  0  0  0  0  0  0  0
   82.7471  219.5351  317.3503 C   0  0  0  0  0  0  0  0  0  0  0  0
   82.4017  218.4089  318.3317 C   0  0  0  0  0  0  0  0  0  0  0  0
   83.3825  218.2906  319.5015 C   0  0  0  0  0  0  0  0  0  0  0  0
   84.6867  217.6163  319.0667 C   0  0  0  0  0  0  0  0  0  0  0  0
   85.4552  217.0681  320.2723 C   0  0  0  0  0  0  0  0  0  0  0  0
   86.8967  216.7164  319.9039 C   0  0  0  0  0  0  0  0  0  0  0  0
   87.7773  217.9229  319.5679 C   0  0  0  0  0  0  0  0  0  0  0  0
   89.2938  217.7042  319.6115 C   0  0  0  0  0  0  0  0  0  0  0  0
   90.0928  218.8856  320.1797 C   0  0  0  0  0  0  0  0  0  0  0  0
   91.6036  218.5994  320.2203 C   0  0  1  0  0  0  0  0  0  0  0  0
   92.0887  218.4808  318.8810 O   0  0  0  0  0  0  0  0  0  0  0  0
   92.4085  219.6935  320.9734 C   0  0  1  0  0  0  0  0  0  0  0  0
   91.6442  220.9113  320.9495 O   0  0  0  0  0  0  0  0  0  0  0  0
   92.7736  219.3083  322.4359 C   0  0  2  0  0  0  0  0  0  0  0  0
   93.8508  220.2161  323.0659 C   0  0  0  0  0  0  0  0  0  0  0  0
   95.1506  219.6813  322.7650 O   0  0  0  0  0  0  0  0  0  0  0  0
   97.6486  220.5298  323.4293 O   0  0  0  0  0  0  0  0  0  0  0  0
   99.2334  218.5081  322.5821 O   0  0  0  0  0  0  0  0  0  0  0  0
   95.3783  217.5923  323.6603 O   0  0  0  0  0  0  0  0  0  0  0  0
   95.0382  216.1978  326.1877 O   0  0  0  0  0  0  0  0  0  0  0  0
   98.7205  216.5111  324.4442 O   0  0  0  0  0  0  0  0  0  0  0  0
   98.7928  215.1589  324.8923 C   0  0  0  0  0  0  0  0  0  0  0  0
   99.5888  214.3584  323.9112 C   0  0  2  0  0  0  0  0  0  0  0  0
  100.9424  213.8209  324.2934 C   0  0  0  0  0  0  0  0  0  0  0  0
  100.8333  214.9152  323.2700 C   0  0  0  0  0  0  0  0  0  0  0  0
   93.1138  217.8754  322.5936 N   0  0  0  0  0  0  0  0  0  0  0  0
   92.1784  216.8788  322.7707 C   0  0  0  0  0  0  0  0  0  0  0  0
   91.9597  216.3220  323.8381 O   0  0  0  0  0  0  0  0  0  0  0  0
   91.4627  216.4916  321.4868 C   0  0  0  0  0  0  0  0  0  0  0  0
   92.0490  215.2130  320.8896 C   0  0  0  0  0  0  0  0  0  0  0  0
   91.0708  214.0427  320.9977 C   0  0  0  0  0  0  0  0  0  0  0  0
   91.2050  213.0972  319.8028 C   0  0  0  0  0  0  0  0  0  0  0  0
   90.2836  213.5152  318.6548 C   0  0  0  0  0  0  0  0  0  0  0  0
   90.4074  212.5622  317.4625 C   0  0  0  0  0  0  0  0  0  0  0  0
   90.3156  213.2731  316.1086 C   0  0  0  0  0  0  0  0  0  0  0  0
   91.0907  212.5668  314.9928 C   0  0  0  0  0  0  0  0  0  0  0  0
   90.8278  213.2344  313.6395 C   0  0  0  0  0  0  0  0  0  0  0  0
   90.4260  214.7096  313.7380 C   0  0  0  0  0  0  0  0  0  0  0  0
   88.9333  215.0286  313.5797 C   0  0  0  0  0  0  0  0  0  0  0  0
   88.5975  216.1468  312.5830 C   0  0  0  0  0  0  0  0  0  0  0  0
   88.3533  215.7376  311.1298 C   0  0  0  0  0  0  0  0  0  0  0  0
   87.0315  214.9975  310.9225 C   0  0  0  0  0  0  0  0  0  0  0  0
   86.4283  215.2964  309.5480 C   0  0  0  0  0  0  0  0  0  0  0  0
   86.0231  216.7645  309.3823 C   0  0  0  0  0  0  0  0  0  0  0  0
   84.6478  217.1389  309.9431 C   0  0  0  0  0  0  0  0  0  0  0  0
   83.6089  217.5619  308.8998 C   0  0  0  0  0  0  0  0  0  0  0  0
   82.9569  218.9273  309.1401 C   0  0  0  0  0  0  0  0  0  0  0  0
   83.7456  220.1316  308.6152 C   0  0  0  0  0  0  0  0  0  0  0  0
   83.0884  221.4955  308.8475 C   0  0  0  0  0  0  0  0  0  0  0  0
   83.6802  222.3389  309.9804 C   0  0  0  0  0  0  0  0  0  0  0  0
   83.0941  223.7402  310.1875 C   0  0  0  0  0  0  0  0  0  0  0  0
   83.6176  224.5136  311.3999 C   0  0  0  0  0  0  0  0  0  0  0  0
   83.0699  224.0588  312.7421 C   0  0  0  0  0  0  0  0  0  0  0  0
  1  6  1  0
  1 27  1  6
  1 30  1  0
  3  2  1  1
  2 31  1  0
  3  4  1  0
 30  3  1  0
  5  4  1  0
  4 32  1  1
  6  5  1  0
  5 29  1  1
  6 28  1  6
  8  7  1  0
  9  8  1  0
 10  9  1  0
 11 10  1  0
 12 11  1  0
 13 12  1  0
 14 13  1  0
 15 14  1  0
 16 15  1  0
 17 16  1  0
 18 17  1  0
 19 18  1  0
 20 19  1  0
 21 20  1  0
 21 22  1  6
 23 21  1  0
 23 24  1  1
 25 23  1  0
 25 26  1  6
 25 37  1  0
 26 27  1  0
 32 33  1  0
 34 33  1  1
 34 35  1  0
 34 36  1  0
 35 36  1  0
 37 38  1  0
 38 39  2  0
 38 40  1  0
 40 41  1  0
 41 42  1  0
 42 43  1  0
 43 44  1  0
 44 45  1  0
 45 46  1  0
 46 47  1  0
 47 48  1  0
 48 49  1  0
 49 50  1  0
 50 51  1  0
 51 52  1  0
 52 53  1  0
 53 54  1  0
 54 55  1  0
 55 56  1  0
 56 57  1  0
 57 58  1  0
 58 59  1  0
 59 60  1  0
 60 61  1  0
 61 62  1  0
 62 63  1  0
 63 64  1  0
M  END
$$$$
