
     RDKit          3D

 64 65  0  0  0  0  0  0  0  0999 V2000
   90.9139  214.8070  317.1276 C   0  0  1  0  0  0  0  0  0  0  0  0
   90.4995  212.4212  315.2322 C   0  0  0  0  0  0  0  0  0  0  0  0
   91.4077  212.5141  316.4756 C   0  0  2  0  0  0  0  0  0  0  0  0
   90.8100  211.9103  317.7781 C   0  0  1  0  0  0  0  0  0  0  0  0
   90.4402  213.0228  318.7864 C   0  0  1  0  0  0  0  0  0  0  0  0
   89.8114  214.1818  318.0184 C   0  0  1  0  0  0  0  0  0  0  0  0
   84.4523  230.9541  312.5096 C   0  0  0  0  0  0  0  0  0  0  0  0
   85.8663  230.6022  312.9471 C   0  0  0  0  0  0  0  0  0  0  0  0
   86.5996  229.6794  311.9701 C   0  0  0  0  0  0  0  0  0  0  0  0
   88.0007  229.2850  312.4456 C   0  0  0  0  0  0  0  0  0  0  0  0
   88.6153  228.2159  311.5424 C   0  0  0  0  0  0  0  0  0  0  0  0
   90.0248  227.7731  311.9532 C   0  0  0  0  0  0  0  0  0  0  0  0
   90.3989  226.3340  311.5791 C   0  0  0  0  0  0  0  0  0  0  0  0
   91.1425  225.5842  312.6878 C   0  0  0  0  0  0  0  0  0  0  0  0
   90.2886  225.4760  313.9543 C   0  0  0  0  0  0  0  0  0  0  0  0
   91.1635  225.4417  315.2105 C   0  0  0  0  0  0  0  0  0  0  0  0
   91.5161  224.0080  315.6075 C   0  0  0  0  0  0  0  0  0  0  0  0
   92.9493  223.8248  316.1137 C   0  0  0  0  0  0  0  0  0  0  0  0
   93.3238  222.4338  316.6375 C   0  0  0  0  0  0  0  0  0  0  0  0
   92.5845  222.0129  317.9157 C   0  0  0  0  0  0  0  0  0  0  0  0
   92.9549  220.5871  318.3583 C   0  0  1  0  0  0  0  0  0  0  0  0
   92.9283  220.5236  319.7859 O   0  0  0  0  0  0  0  0  0  0  0  0
   92.0106  219.5042  317.7687 C   0  0  1  0  0  0  0  0  0  0  0  0
   92.0583  219.5975  316.3346 O   0  0  0  0  0  0  0  0  0  0  0  0
   92.3487  218.0579  318.2319 C   0  0  2  0  0  0  0  0  0  0  0  0
   91.9479  216.9706  317.2129 C   0  0  0  0  0  0  0  0  0  0  0  0
   91.6345  215.7581  317.9185 O   0  0  0  0  0  0  0  0  0  0  0  0
   89.1859  215.1179  318.9164 O   0  0  0  0  0  0  0  0  0  0  0  0
   89.5240  212.5857  319.8057 O   0  0  0  0  0  0  0  0  0  0  0  0
   91.8816  213.8486  316.6895 O   0  0  0  0  0  0  0  0  0  0  0  0
   91.1562  212.9990  314.1040 O   0  0  0  0  0  0  0  0  0  0  0  0
   89.6548  211.1243  317.4465 O   0  0  0  0  0  0  0  0  0  0  0  0
   89.9195  209.7339  317.2699 C   0  0  0  0  0  0  0  0  0  0  0  0
   89.4968  208.9937  318.4989 C   0  0  2  0  0  0  0  0  0  0  0  0
   90.4339  208.0126  319.1520 C   0  0  0  0  0  0  0  0  0  0  0  0
   89.1948  207.5180  318.4615 C   0  0  0  0  0  0  0  0  0  0  0  0
   91.8374  217.7451  319.5863 N   0  0  0  0  0  0  0  0  0  0  0  0
   92.5437  217.0271  320.5272 C   0  0  0  0  0  0  0  0  0  0  0  0
   93.2404  216.0546  320.2703 O   0  0  0  0  0  0  0  0  0  0  0  0
   92.3377  217.5312  321.9464 C   0  0  0  0  0  0  0  0  0  0  0  0
   93.3193  216.8739  322.9158 C   0  0  0  0  0  0  0  0  0  0  0  0
   93.2197  215.3488  322.8680 C   0  0  0  0  0  0  0  0  0  0  0  0
   91.9695  214.8529  323.5965 C   0  0  0  0  0  0  0  0  0  0  0  0
   91.8565  213.3280  323.5354 C   0  0  0  0  0  0  0  0  0  0  0  0
   90.6866  212.8191  324.3823 C   0  0  0  0  0  0  0  0  0  0  0  0
   89.9314  211.6554  323.7325 C   0  0  0  0  0  0  0  0  0  0  0  0
   88.4803  211.9902  323.3767 C   0  0  0  0  0  0  0  0  0  0  0  0
   87.7475  210.7512  322.8531 C   0  0  0  0  0  0  0  0  0  0  0  0
   87.7114  209.5820  323.8425 C   0  0  0  0  0  0  0  0  0  0  0  0
   86.6283  208.5194  323.6134 C   0  0  0  0  0  0  0  0  0  0  0  0
   86.6218  207.3544  324.6131 C   0  0  0  0  0  0  0  0  0  0  0  0
   85.4274  206.4003  324.5668 C   0  0  0  0  0  0  0  0  0  0  0  0
   85.6716  205.0870  325.3107 C   0  0  0  0  0  0  0  0  0  0  0  0
   86.7007  205.2572  326.4306 C   0  0  0  0  0  0  0  0  0  0  0  0
   87.0224  203.9425  327.1482 C   0  0  0  0  0  0  0  0  0  0  0  0
   86.0872  203.5730  328.3036 C   0  0  0  0  0  0  0  0  0  0  0  0
   85.8410  204.6855  329.3274 C   0  0  0  0  0  0  0  0  0  0  0  0
   84.8103  204.3607  330.4132 C   0  0  0  0  0  0  0  0  0  0  0  0
   83.6546  205.3589  330.5394 C   0  0  0  0  0  0  0  0  0  0  0  0
   84.0056  206.6830  331.2246 C   0  0  0  0  0  0  0  0  0  0  0  0
   83.0490  207.8486  330.9574 C   0  0  0  0  0  0  0  0  0  0  0  0
   82.2969  208.4252  332.1623 C   0  0  0  0  0  0  0  0  0  0  0  0
   81.7476  209.8436  331.9938 C   0  0  0  0  0  0  0  0  0  0  0  0
   81.5751  210.6273  333.2840 C   0  0  0  0  0  0  0  0  0  0  0  0
  1  6  1  0
  1 27  1  1
  1 30  1  0
  3  2  1  6
  2 31  1  0
  3  4  1  0
 30  3  1  0
  5  4  1  0
  4 32  1  6
  6  5  1  0
  5 29  1  1
  6 28  1  1
  8  7  1  0
  9  8  1  0
 10  9  1  0
 11 10  1  0
 12 11  1  0
 13 12  1  0
 14 13  1  0
 15 14  1  0
 16 15  1  0
 17 16  1  0
 18 17  1  0
 19 18  1  0
 20 19  1  0
 21 20  1  0
 21 22  1  1
 23 21  1  0
 23 24  1  6
 25 23  1  0
 25 26  1  6
 25 37  1  0
 26 27  1  0
 32 33  1  0
 34 33  1  6
 34 35  1  0
 34 36  1  0
 35 36  1  0
 37 38  1  0
 38 39  2  0
 38 40  1  0
 40 41  1  0
 41 42  1  0
 42 43  1  0
 43 44  1  0
 44 45  1  0
 45 46  1  0
 46 47  1  0
 47 48  1  0
 48 49  1  0
 49 50  1  0
 50 51  1  0
 51 52  1  0
 52 53  1  0
 53 54  1  0
 54 55  1  0
 55 56  1  0
 56 57  1  0
 57 58  1  0
 58 59  1  0
 59 60  1  0
 60 61  1  0
 61 62  1  0
 62 63  1  0
 63 64  1  0
M  END
$$$$
