
     RDKit          3D

 64 65  0  0  0  0  0  0  0  0999 V2000
   97.3965  219.5041  323.1668 C   0  0  1  0  0  0  0  0  0  0  0  0
   98.4402  218.0755  325.6820 C   0  0  0  0  0  0  0  0  0  0  0  0
   97.3407  217.6160  324.7025 C   0  0  2  0  0  0  0  0  0  0  0  0
   97.8010  216.5966  323.6222 C   0  0  1  0  0  0  0  0  0  0  0  0
   97.8444  217.2530  322.2228 C   0  0  1  0  0  0  0  0  0  0  0  0
   98.4190  218.6594  322.3662 C   0  0  1  0  0  0  0  0  0  0  0  0
   80.8138  211.7112  322.0426 C   0  0  0  0  0  0  0  0  0  0  0  0
   82.3096  211.9894  322.0339 C   0  0  0  0  0  0  0  0  0  0  0  0
   82.8563  212.3651  320.6542 C   0  0  0  0  0  0  0  0  0  0  0  0
   82.3090  213.6949  320.1276 C   0  0  0  0  0  0  0  0  0  0  0  0
   83.0979  214.8808  320.6822 C   0  0  0  0  0  0  0  0  0  0  0  0
   83.8742  215.6754  319.6251 C   0  0  0  0  0  0  0  0  0  0  0  0
   84.9049  216.6694  320.1729 C   0  0  0  0  0  0  0  0  0  0  0  0
   84.5687  218.1325  319.8714 C   0  0  0  0  0  0  0  0  0  0  0  0
   85.5140  218.7134  318.8163 C   0  0  0  0  0  0  0  0  0  0  0  0
   86.9619  218.2879  319.0758 C   0  0  0  0  0  0  0  0  0  0  0  0
   87.9521  219.3424  318.5809 C   0  0  0  0  0  0  0  0  0  0  0  0
   89.3457  219.2465  319.2073 C   0  0  0  0  0  0  0  0  0  0  0  0
   90.2724  220.4526  319.0175 C   0  0  0  0  0  0  0  0  0  0  0  0
   91.7693  220.1319  319.1340 C   0  0  0  0  0  0  0  0  0  0  0  0
   92.1645  219.7130  320.5603 C   0  0  1  0  0  0  0  0  0  0  0  0
   91.9498  218.3074  320.7065 O   0  0  0  0  0  0  0  0  0  0  0  0
   93.6390  220.0559  320.9068 C   0  0  1  0  0  0  0  0  0  0  0  0
   93.8620  221.4436  320.6028 O   0  0  0  0  0  0  0  0  0  0  0  0
   94.0226  219.7536  322.3840 C   0  0  2  0  0  0  0  0  0  0  0  0
   95.2527  220.5428  322.8795 C   0  0  0  0  0  0  0  0  0  0  0  0
   96.4322  220.0218  322.2441 O   0  0  0  0  0  0  0  0  0  0  0  0
   98.7548  219.2141  321.0803 O   0  0  0  0  0  0  0  0  0  0  0  0
   98.6379  216.5185  321.2738 O   0  0  0  0  0  0  0  0  0  0  0  0
   96.6559  218.7269  324.1125 O   0  0  0  0  0  0  0  0  0  0  0  0
   97.9184  218.1318  327.0097 O   0  0  0  0  0  0  0  0  0  0  0  0
   99.0932  216.0821  323.9796 O   0  0  0  0  0  0  0  0  0  0  0  0
   99.0776  214.7459  324.4784 C   0  0  0  0  0  0  0  0  0  0  0  0
  100.2340  214.5552  325.4077 C   0  0  2  0  0  0  0  0  0  0  0  0
  100.0371  213.8614  326.7294 C   0  0  0  0  0  0  0  0  0  0  0  0
  100.3434  215.3317  326.6941 C   0  0  0  0  0  0  0  0  0  0  0  0
   94.1587  218.3060  322.6663 N   0  0  0  0  0  0  0  0  0  0  0  0
   93.1644  217.3808  322.4320 C   0  0  0  0  0  0  0  0  0  0  0  0
   92.1009  217.3456  323.0362 O   0  0  0  0  0  0  0  0  0  0  0  0
   93.5333  216.3585  321.3694 C   0  0  0  0  0  0  0  0  0  0  0  0
   93.3031  214.9326  321.8685 C   0  0  0  0  0  0  0  0  0  0  0  0
   91.8421  214.7027  322.2567 C   0  0  0  0  0  0  0  0  0  0  0  0
   91.5565  213.2168  322.4810 C   0  0  0  0  0  0  0  0  0  0  0  0
   90.5472  212.6829  321.4623 C   0  0  0  0  0  0  0  0  0  0  0  0
   89.4051  213.6767  321.2324 C   0  0  0  0  0  0  0  0  0  0  0  0
   88.4227  213.2274  320.1462 C   0  0  0  0  0  0  0  0  0  0  0  0
   87.0560  213.9118  320.2363 C   0  0  0  0  0  0  0  0  0  0  0  0
   86.1744  213.5282  319.0437 C   0  0  0  0  0  0  0  0  0  0  0  0
   85.6771  214.7234  318.2243 C   0  0  0  0  0  0  0  0  0  0  0  0
   86.0539  214.7429  316.7369 C   0  0  0  0  0  0  0  0  0  0  0  0
   84.8748  214.8098  315.7561 C   0  0  0  0  0  0  0  0  0  0  0  0
   85.2091  214.9350  314.2690 C   0  0  0  0  0  0  0  0  0  0  0  0
   84.4447  216.0587  313.5685 C   0  0  0  0  0  0  0  0  0  0  0  0
   83.8972  215.6073  312.2124 C   0  0  0  0  0  0  0  0  0  0  0  0
   84.2199  216.5906  311.0829 C   0  0  0  0  0  0  0  0  0  0  0  0
   85.1754  217.7301  311.4501 C   0  0  0  0  0  0  0  0  0  0  0  0
   85.2118  218.8981  310.4596 C   0  0  0  0  0  0  0  0  0  0  0  0
   83.8485  219.5011  310.1069 C   0  0  0  0  0  0  0  0  0  0  0  0
   83.8958  220.7804  309.2648 C   0  0  0  0  0  0  0  0  0  0  0  0
   85.2791  221.4240  309.1298 C   0  0  0  0  0  0  0  0  0  0  0  0
   85.4614  222.7720  309.8331 C   0  0  0  0  0  0  0  0  0  0  0  0
   86.6800  223.6105  309.4307 C   0  0  0  0  0  0  0  0  0  0  0  0
   87.9890  223.2800  310.1515 C   0  0  0  0  0  0  0  0  0  0  0  0
   88.4019  224.2697  311.2276 C   0  0  0  0  0  0  0  0  0  0  0  0
  1  6  1  0
  1 27  1  6
  1 30  1  0
  3  2  1  6
  2 31  1  0
  3  4  1  0
 30  3  1  0
  5  4  1  0
  4 32  1  1
  6  5  1  0
  5 29  1  6
  6 28  1  6
  8  7  1  0
  9  8  1  0
 10  9  1  0
 11 10  1  0
 12 11  1  0
 13 12  1  0
 14 13  1  0
 15 14  1  0
 16 15  1  0
 17 16  1  0
 18 17  1  0
 19 18  1  0
 20 19  1  0
 21 20  1  0
 21 22  1  6
 23 21  1  0
 23 24  1  1
 25 23  1  0
 25 26  1  6
 25 37  1  0
 26 27  1  0
 32 33  1  0
 34 33  1  6
 34 35  1  0
 34 36  1  0
 35 36  1  0
 37 38  1  0
 38 39  2  0
 38 40  1  0
 40 41  1  0
 41 42  1  0
 42 43  1  0
 43 44  1  0
 44 45  1  0
 45 46  1  0
 46 47  1  0
 47 48  1  0
 48 49  1  0
 49 50  1  0
 50 51  1  0
 51 52  1  0
 52 53  1  0
 53 54  1  0
 54 55  1  0
 55 56  1  0
 56 57  1  0
 57 58  1  0
 58 59  1  0
 59 60  1  0
 60 61  1  0
 61 62  1  0
 62 63  1  0
 63 64  1  0
M  END
$$$$
