
     RDKit          3D

 64 65  0  0  0  0  0  0  0  0999 V2000
   99.0649  219.8375  322.6434 C   0  0  1  0  0  0  0  0  0  0  0  0
  100.1785  219.6370  325.5028 C   0  0  0  0  0  0  0  0  0  0  0  0
   98.9975  218.8681  324.8755 C   0  0  2  0  0  0  0  0  0  0  0  0
   99.3336  217.4360  324.3712 C   0  0  1  0  0  0  0  0  0  0  0  0
   99.3283  217.3764  322.8261 C   0  0  1  0  0  0  0  0  0  0  0  0
   99.9880  218.6442  322.2912 C   0  0  1  0  0  0  0  0  0  0  0  0
   81.6052  214.5883  311.1702 C   0  0  0  0  0  0  0  0  0  0  0  0
   82.5138  214.5824  312.3905 C   0  0  0  0  0  0  0  0  0  0  0  0
   82.5449  215.9171  313.1396 C   0  0  0  0  0  0  0  0  0  0  0  0
   83.4853  215.9113  314.3481 C   0  0  0  0  0  0  0  0  0  0  0  0
   83.9386  217.3259  314.7083 C   0  0  0  0  0  0  0  0  0  0  0  0
   84.8015  217.4122  315.9729 C   0  0  0  0  0  0  0  0  0  0  0  0
   85.6867  218.6592  316.0831 C   0  0  0  0  0  0  0  0  0  0  0  0
   87.1852  218.3477  316.1252 C   0  0  0  0  0  0  0  0  0  0  0  0
   87.9595  219.4426  316.8642 C   0  0  0  0  0  0  0  0  0  0  0  0
   89.0893  218.8474  317.7091 C   0  0  0  0  0  0  0  0  0  0  0  0
   90.4445  218.9999  317.0179 C   0  0  0  0  0  0  0  0  0  0  0  0
   91.6205  219.2260  317.9718 C   0  0  0  0  0  0  0  0  0  0  0  0
   92.5386  220.4148  317.6660 C   0  0  0  0  0  0  0  0  0  0  0  0
   93.5062  220.7821  318.8000 C   0  0  0  0  0  0  0  0  0  0  0  0
   94.7585  219.8889  318.8074 C   0  0  1  0  0  0  0  0  0  0  0  0
   95.1605  219.6437  317.4579 O   0  0  0  0  0  0  0  0  0  0  0  0
   95.9409  220.5083  319.6013 C   0  0  1  0  0  0  0  0  0  0  0  0
   96.1235  221.8626  319.1535 O   0  0  0  0  0  0  0  0  0  0  0  0
   95.7503  220.4660  321.1448 C   0  0  2  0  0  0  0  0  0  0  0  0
   97.0138  220.8628  321.9370 C   0  0  0  0  0  0  0  0  0  0  0  0
   98.0766  219.9504  321.6140 O   0  0  0  0  0  0  0  0  0  0  0  0
  100.2753  218.5236  320.8852 O   0  0  0  0  0  0  0  0  0  0  0  0
  100.0203  216.2311  322.2981 O   0  0  0  0  0  0  0  0  0  0  0  0
   98.3410  219.6371  323.8610 O   0  0  0  0  0  0  0  0  0  0  0  0
   99.6992  220.7973  326.1825 O   0  0  0  0  0  0  0  0  0  0  0  0
  100.6145  217.0428  324.8879 O   0  0  0  0  0  0  0  0  0  0  0  0
  100.5708  215.9448  325.7972 C   0  0  0  0  0  0  0  0  0  0  0  0
  101.8285  215.1462  325.6636 C   0  0  2  0  0  0  0  0  0  0  0  0
  101.8333  213.8684  324.8673 C   0  0  0  0  0  0  0  0  0  0  0  0
  101.9942  213.8206  326.3601 C   0  0  0  0  0  0  0  0  0  0  0  0
   95.1894  219.1831  321.6279 N   0  0  0  0  0  0  0  0  0  0  0  0
   93.8709  219.0090  321.9898 C   0  0  0  0  0  0  0  0  0  0  0  0
   92.9840  219.8233  321.7717 O   0  0  0  0  0  0  0  0  0  0  0  0
   93.6207  217.7117  322.7415 C   0  0  0  0  0  0  0  0  0  0  0  0
   92.2122  217.1811  322.4773 C   0  0  0  0  0  0  0  0  0  0  0  0
   92.2152  216.0884  321.4076 C   0  0  0  0  0  0  0  0  0  0  0  0
   90.8899  215.3248  321.3930 C   0  0  0  0  0  0  0  0  0  0  0  0
   91.1131  213.8178  321.5378 C   0  0  0  0  0  0  0  0  0  0  0  0
   90.5854  213.0543  320.3198 C   0  0  0  0  0  0  0  0  0  0  0  0
   89.1203  212.6297  320.4609 C   0  0  0  0  0  0  0  0  0  0  0  0
   88.9380  211.2907  321.1810 C   0  0  0  0  0  0  0  0  0  0  0  0
   87.4769  211.0883  321.5940 C   0  0  0  0  0  0  0  0  0  0  0  0
   87.2828  210.0794  322.7305 C   0  0  0  0  0  0  0  0  0  0  0  0
   86.9135  208.6466  322.3236 C   0  0  0  0  0  0  0  0  0  0  0  0
   85.5077  208.1841  322.7315 C   0  0  0  0  0  0  0  0  0  0  0  0
   84.4969  207.9461  321.6086 C   0  0  0  0  0  0  0  0  0  0  0  0
   83.6862  206.6618  321.7852 C   0  0  0  0  0  0  0  0  0  0  0  0
   82.6527  206.4904  320.6696 C   0  0  0  0  0  0  0  0  0  0  0  0
   81.8879  205.1665  320.7647 C   0  0  0  0  0  0  0  0  0  0  0  0
   80.4945  205.2507  321.3951 C   0  0  0  0  0  0  0  0  0  0  0  0
   80.3809  204.6755  322.8103 C   0  0  0  0  0  0  0  0  0  0  0  0
   78.9951  204.7872  323.4541 C   0  0  0  0  0  0  0  0  0  0  0  0
   78.8999  204.2797  324.8967 C   0  0  0  0  0  0  0  0  0  0  0  0
   79.8252  204.9774  325.8982 C   0  0  0  0  0  0  0  0  0  0  0  0
   79.1332  205.8235  326.9709 C   0  0  0  0  0  0  0  0  0  0  0  0
   79.9370  206.1393  328.2374 C   0  0  0  0  0  0  0  0  0  0  0  0
   79.1223  206.5760  329.4573 C   0  0  0  0  0  0  0  0  0  0  0  0
   79.9165  207.2734  330.5487 C   0  0  0  0  0  0  0  0  0  0  0  0
  1  6  1  0
  1 27  1  6
  1 30  1  0
  3  2  1  6
  2 31  1  0
  3  4  1  0
 30  3  1  0
  5  4  1  0
  4 32  1  6
  6  5  1  0
  5 29  1  1
  6 28  1  6
  8  7  1  0
  9  8  1  0
 10  9  1  0
 11 10  1  0
 12 11  1  0
 13 12  1  0
 14 13  1  0
 15 14  1  0
 16 15  1  0
 17 16  1  0
 18 17  1  0
 19 18  1  0
 20 19  1  0
 21 20  1  0
 21 22  1  6
 23 21  1  0
 23 24  1  6
 25 23  1  0
 25 26  1  1
 25 37  1  0
 26 27  1  0
 32 33  1  0
 34 33  1  1
 34 35  1  0
 34 36  1  0
 35 36  1  0
 37 38  1  0
 38 39  2  0
 38 40  1  0
 40 41  1  0
 41 42  1  0
 42 43  1  0
 43 44  1  0
 44 45  1  0
 45 46  1  0
 46 47  1  0
 47 48  1  0
 48 49  1  0
 49 50  1  0
 50 51  1  0
 51 52  1  0
 52 53  1  0
 53 54  1  0
 54 55  1  0
 55 56  1  0
 56 57  1  0
 57 58  1  0
 58 59  1  0
 59 60  1  0
 60 61  1  0
 61 62  1  0
 62 63  1  0
 63 64  1  0
M  END
$$$$
