
     RDKit          3D

 64 65  0  0  0  0  0  0  0  0999 V2000
   95.6178  222.4277  320.7680 C   0  0  1  0  0  0  0  0  0  0  0  0
   95.8947  225.3811  321.5788 C   0  0  0  0  0  0  0  0  0  0  0  0
   95.1969  224.2365  322.3420 C   0  0  2  0  0  0  0  0  0  0  0  0
   96.0424  223.5827  323.4717 C   0  0  1  0  0  0  0  0  0  0  0  0
   96.4875  222.1557  323.0765 C   0  0  1  0  0  0  0  0  0  0  0  0
   96.8944  222.1661  321.6058 C   0  0  1  0  0  0  0  0  0  0  0  0
   82.3512  223.0396  311.6269 C   0  0  0  0  0  0  0  0  0  0  0  0
   81.6344  221.7733  312.0716 C   0  0  0  0  0  0  0  0  0  0  0  0
   82.4650  220.8952  313.0110 C   0  0  0  0  0  0  0  0  0  0  0  0
   82.9505  219.5987  312.3567 C   0  0  0  0  0  0  0  0  0  0  0  0
   84.3524  219.2233  312.8366 C   0  0  0  0  0  0  0  0  0  0  0  0
   84.8342  217.8447  312.3691 C   0  0  0  0  0  0  0  0  0  0  0  0
   85.3821  216.9295  313.4705 C   0  0  0  0  0  0  0  0  0  0  0  0
   86.5294  217.5508  314.2718 C   0  0  0  0  0  0  0  0  0  0  0  0
   87.0914  216.5608  315.2958 C   0  0  0  0  0  0  0  0  0  0  0  0
   88.2516  217.1770  316.0825 C   0  0  0  0  0  0  0  0  0  0  0  0
   88.9180  216.1472  316.9950 C   0  0  0  0  0  0  0  0  0  0  0  0
   90.1740  216.6525  317.7098 C   0  0  0  0  0  0  0  0  0  0  0  0
   91.4678  216.6899  316.8886 C   0  0  0  0  0  0  0  0  0  0  0  0
   92.7167  217.0966  317.6835 C   0  0  0  0  0  0  0  0  0  0  0  0
   93.1176  218.5594  317.4275 C   0  0  1  0  0  0  0  0  0  0  0  0
   91.9342  219.3357  317.2274 O   0  0  0  0  0  0  0  0  0  0  0  0
   93.9548  219.1704  318.5841 C   0  0  1  0  0  0  0  0  0  0  0  0
   94.9207  220.0704  318.0141 O   0  0  0  0  0  0  0  0  0  0  0  0
   93.0995  219.8996  319.6600 C   0  0  2  0  0  0  0  0  0  0  0  0
   93.6323  221.2993  320.0319 C   0  0  0  0  0  0  0  0  0  0  0  0
   94.9668  221.1714  320.5506 O   0  0  0  0  0  0  0  0  0  0  0  0
   97.5862  220.9535  321.2524 O   0  0  0  0  0  0  0  0  0  0  0  0
   97.5876  221.6642  323.8623 O   0  0  0  0  0  0  0  0  0  0  0  0
   94.6660  223.2491  321.4508 O   0  0  0  0  0  0  0  0  0  0  0  0
   95.1196  226.5760  321.6761 O   0  0  0  0  0  0  0  0  0  0  0  0
   97.1835  224.4105  323.7457 O   0  0  0  0  0  0  0  0  0  0  0  0
   97.1730  225.0197  325.0353 C   0  0  0  0  0  0  0  0  0  0  0  0
   98.4569  224.7077  325.7362 C   0  0  2  0  0  0  0  0  0  0  0  0
   98.9563  225.6052  326.8372 C   0  0  0  0  0  0  0  0  0  0  0  0
   99.6897  225.5482  325.5272 C   0  0  0  0  0  0  0  0  0  0  0  0
   92.8542  219.0758  320.8662 N   0  0  0  0  0  0  0  0  0  0  0  0
   92.6220  217.7177  320.8347 C   0  0  0  0  0  0  0  0  0  0  0  0
   91.8057  217.1758  320.1017 O   0  0  0  0  0  0  0  0  0  0  0  0
   93.4518  216.9428  321.8455 C   0  0  0  0  0  0  0  0  0  0  0  0
   93.5440  215.4644  321.4698 C   0  0  0  0  0  0  0  0  0  0  0  0
   93.6117  214.5729  322.7102 C   0  0  0  0  0  0  0  0  0  0  0  0
   92.9598  213.2137  322.4509 C   0  0  0  0  0  0  0  0  0  0  0  0
   93.2515  212.2297  323.5860 C   0  0  0  0  0  0  0  0  0  0  0  0
   92.4949  210.9124  323.3930 C   0  0  0  0  0  0  0  0  0  0  0  0
   92.5235  210.0120  324.6320 C   0  0  0  0  0  0  0  0  0  0  0  0
   91.6016  208.7941  324.5247 C   0  0  0  0  0  0  0  0  0  0  0  0
   90.1313  209.2131  324.6204 C   0  0  0  0  0  0  0  0  0  0  0  0
   89.4083  208.6773  325.8602 C   0  0  0  0  0  0  0  0  0  0  0  0
   88.6881  207.3307  325.7090 C   0  0  0  0  0  0  0  0  0  0  0  0
   87.3281  207.3834  324.9989 C   0  0  0  0  0  0  0  0  0  0  0  0
   86.5380  206.0773  324.9042 C   0  0  0  0  0  0  0  0  0  0  0  0
   85.0918  206.2757  324.4490 C   0  0  0  0  0  0  0  0  0  0  0  0
   84.1044  206.0496  325.5963 C   0  0  0  0  0  0  0  0  0  0  0  0
   83.2479  204.7938  325.4058 C   0  0  0  0  0  0  0  0  0  0  0  0
   81.7403  205.0337  325.2796 C   0  0  0  0  0  0  0  0  0  0  0  0
   80.9263  204.7629  326.5487 C   0  0  0  0  0  0  0  0  0  0  0  0
   79.6599  205.6102  326.7084 C   0  0  0  0  0  0  0  0  0  0  0  0
   78.4405  204.8678  327.2649 C   0  0  0  0  0  0  0  0  0  0  0  0
   77.0831  205.4872  326.9186 C   0  0  0  0  0  0  0  0  0  0  0  0
   75.8863  204.9662  327.7195 C   0  0  0  0  0  0  0  0  0  0  0  0
   74.5217  205.6012  327.4287 C   0  0  0  0  0  0  0  0  0  0  0  0
   73.6168  205.8305  328.6415 C   0  0  0  0  0  0  0  0  0  0  0  0
   72.2883  206.5025  328.3385 C   0  0  0  0  0  0  0  0  0  0  0  0
  1  6  1  0
  1 27  1  1
  1 30  1  0
  3  2  1  6
  2 31  1  0
  3  4  1  0
 30  3  1  0
  5  4  1  0
  4 32  1  6
  6  5  1  0
  5 29  1  1
  6 28  1  6
  8  7  1  0
  9  8  1  0
 10  9  1  0
 11 10  1  0
 12 11  1  0
 13 12  1  0
 14 13  1  0
 15 14  1  0
 16 15  1  0
 17 16  1  0
 18 17  1  0
 19 18  1  0
 20 19  1  0
 21 20  1  0
 21 22  1  1
 23 21  1  0
 23 24  1  6
 25 23  1  0
 25 26  1  1
 25 37  1  0
 26 27  1  0
 32 33  1  0
 34 33  1  6
 34 35  1  0
 34 36  1  0
 35 36  1  0
 37 38  1  0
 38 39  2  0
 38 40  1  0
 40 41  1  0
 41 42  1  0
 42 43  1  0
 43 44  1  0
 44 45  1  0
 45 46  1  0
 46 47  1  0
 47 48  1  0
 48 49  1  0
 49 50  1  0
 50 51  1  0
 51 52  1  0
 52 53  1  0
 53 54  1  0
 54 55  1  0
 55 56  1  0
 56 57  1  0
 57 58  1  0
 58 59  1  0
 59 60  1  0
 60 61  1  0
 61 62  1  0
 62 63  1  0
 63 64  1  0
M  END
$$$$
