
     RDKit          3D

 64 65  0  0  0  0  0  0  0  0999 V2000
   98.6459  217.1309  324.3444 C   0  0  1  0  0  0  0  0  0  0  0  0
   99.7385  219.7446  325.5409 C   0  0  0  0  0  0  0  0  0  0  0  0
   98.3364  219.1238  325.7081 C   0  0  2  0  0  0  0  0  0  0  0  0
   98.1233  218.3143  327.0186 C   0  0  1  0  0  0  0  0  0  0  0  0
   98.0310  216.7988  326.7258 C   0  0  1  0  0  0  0  0  0  0  0  0
   99.0723  216.4467  325.6673 C   0  0  1  0  0  0  0  0  0  0  0  0
   80.4009  208.9717  321.8519 C   0  0  0  0  0  0  0  0  0  0  0  0
   81.7220  209.7175  321.9675 C   0  0  0  0  0  0  0  0  0  0  0  0
   82.7911  209.2283  320.9870 C   0  0  0  0  0  0  0  0  0  0  0  0
   84.1010  210.0165  321.0766 C   0  0  0  0  0  0  0  0  0  0  0  0
   85.1537  209.4583  320.1193 C   0  0  0  0  0  0  0  0  0  0  0  0
   86.4338  210.2974  320.0260 C   0  0  0  0  0  0  0  0  0  0  0  0
   87.4885  209.7834  319.0390 C   0  0  0  0  0  0  0  0  0  0  0  0
   88.7582  210.6379  318.9957 C   0  0  0  0  0  0  0  0  0  0  0  0
   88.9803  211.3700  320.3221 C   0  0  0  0  0  0  0  0  0  0  0  0
   90.4703  211.4556  320.6644 C   0  0  0  0  0  0  0  0  0  0  0  0
   90.6879  211.9379  322.0988 C   0  0  0  0  0  0  0  0  0  0  0  0
   91.9062  212.8463  322.2840 C   0  0  0  0  0  0  0  0  0  0  0  0
   93.1059  212.2488  323.0279 C   0  0  0  0  0  0  0  0  0  0  0  0
   93.9781  213.2771  323.7620 C   0  0  0  0  0  0  0  0  0  0  0  0
   94.3861  214.4483  322.8521 C   0  0  1  0  0  0  0  0  0  0  0  0
   93.8446  215.6591  323.3846 O   0  0  0  0  0  0  0  0  0  0  0  0
   95.9250  214.5876  322.6956 C   0  0  1  0  0  0  0  0  0  0  0  0
   96.4468  213.3285  322.2371 O   0  0  0  0  0  0  0  0  0  0  0  0
   96.3566  215.7367  321.7396 C   0  0  2  0  0  0  0  0  0  0  0  0
   97.4825  216.6262  322.3075 C   0  0  0  0  0  0  0  0  0  0  0  0
   97.7179  216.2673  323.6794 O   0  0  0  0  0  0  0  0  0  0  0  0
   99.2379  215.0202  325.5597 O   0  0  0  0  0  0  0  0  0  0  0  0
   98.2508  215.9800  327.8880 O   0  0  0  0  0  0  0  0  0  0  0  0
   97.9508  218.3631  324.5573 O   0  0  0  0  0  0  0  0  0  0  0  0
   99.6365  221.0126  324.8930 O   0  0  0  0  0  0  0  0  0  0  0  0
   99.2037  218.5895  327.9237 O   0  0  0  0  0  0  0  0  0  0  0  0
   98.8382  218.5641  329.3022 C   0  0  0  0  0  0  0  0  0  0  0  0
   99.4170  219.7619  329.9857 C   0  0  2  0  0  0  0  0  0  0  0  0
   99.9645  219.6454  331.3835 C   0  0  0  0  0  0  0  0  0  0  0  0
   98.7071  220.4290  331.1352 C   0  0  0  0  0  0  0  0  0  0  0  0
   95.2177  216.5496  321.2539 N   0  0  0  0  0  0  0  0  0  0  0  0
   95.2453  217.9233  321.1457 C   0  0  0  0  0  0  0  0  0  0  0  0
   95.4529  218.6834  322.0818 O   0  0  0  0  0  0  0  0  0  0  0  0
   94.9410  218.4215  319.7422 C   0  0  0  0  0  0  0  0  0  0  0  0
   93.6278  219.2022  319.7040 C   0  0  0  0  0  0  0  0  0  0  0  0
   92.7654  218.7921  318.5098 C   0  0  0  0  0  0  0  0  0  0  0  0
   91.3344  219.3124  318.6560 C   0  0  0  0  0  0  0  0  0  0  0  0
   90.4587  218.8738  317.4802 C   0  0  0  0  0  0  0  0  0  0  0  0
   89.0256  219.3938  317.6253 C   0  0  0  0  0  0  0  0  0  0  0  0
   88.1197  219.0035  316.4532 C   0  0  0  0  0  0  0  0  0  0  0  0
   86.7781  219.7415  316.4449 C   0  0  0  0  0  0  0  0  0  0  0  0
   86.3973  220.1644  315.0227 C   0  0  0  0  0  0  0  0  0  0  0  0
   84.8882  220.1836  314.7595 C   0  0  0  0  0  0  0  0  0  0  0  0
   84.2771  221.5318  314.3546 C   0  0  0  0  0  0  0  0  0  0  0  0
   84.5645  221.9836  312.9160 C   0  0  0  0  0  0  0  0  0  0  0  0
   83.6716  223.0819  312.3367 C   0  0  0  0  0  0  0  0  0  0  0  0
   82.3142  223.1892  313.0324 C   0  0  0  0  0  0  0  0  0  0  0  0
   81.1593  223.0533  312.0374 C   0  0  0  0  0  0  0  0  0  0  0  0
   80.3105  221.8010  312.2780 C   0  0  0  0  0  0  0  0  0  0  0  0
   78.9681  221.7597  311.5414 C   0  0  0  0  0  0  0  0  0  0  0  0
   79.0447  221.9878  310.0286 C   0  0  0  0  0  0  0  0  0  0  0  0
   77.8694  221.4280  309.2210 C   0  0  0  0  0  0  0  0  0  0  0  0
   77.9974  221.5603  307.6998 C   0  0  0  0  0  0  0  0  0  0  0  0
   76.7216  221.2594  306.9073 C   0  0  0  0  0  0  0  0  0  0  0  0
   76.9105  220.4654  305.6116 C   0  0  0  0  0  0  0  0  0  0  0  0
   76.3922  219.0229  305.5945 C   0  0  0  0  0  0  0  0  0  0  0  0
   77.1401  218.0525  304.6773 C   0  0  0  0  0  0  0  0  0  0  0  0
   76.6775  216.6072  304.7512 C   0  0  0  0  0  0  0  0  0  0  0  0
  1  6  1  0
  1 27  1  1
  1 30  1  0
  3  2  1  6
  2 31  1  0
  3  4  1  0
 30  3  1  0
  5  4  1  0
  4 32  1  1
  6  5  1  0
  5 29  1  1
  6 28  1  6
  8  7  1  0
  9  8  1  0
 10  9  1  0
 11 10  1  0
 12 11  1  0
 13 12  1  0
 14 13  1  0
 15 14  1  0
 16 15  1  0
 17 16  1  0
 18 17  1  0
 19 18  1  0
 20 19  1  0
 21 20  1  0
 21 22  1  1
 23 21  1  0
 23 24  1  6
 25 23  1  0
 25 26  1  1
 25 37  1  0
 26 27  1  0
 32 33  1  0
 34 33  1  1
 34 35  1  0
 34 36  1  0
 35 36  1  0
 37 38  1  0
 38 39  2  0
 38 40  1  0
 40 41  1  0
 41 42  1  0
 42 43  1  0
 43 44  1  0
 44 45  1  0
 45 46  1  0
 46 47  1  0
 47 48  1  0
 48 49  1  0
 49 50  1  0
 50 51  1  0
 51 52  1  0
 52 53  1  0
 53 54  1  0
 54 55  1  0
 55 56  1  0
 56 57  1  0
 57 58  1  0
 58 59  1  0
 59 60  1  0
 60 61  1  0
 61 62  1  0
 62 63  1  0
 63 64  1  0
M  END
$$$$
