
     RDKit          3D

 64 65  0  0  0  0  0  0  0  0999 V2000
   96.4533  219.3773  321.5680 C   0  0  1  0  0  0  0  0  0  0  0  0
   99.3619  218.3790  321.5633 C   0  0  0  0  0  0  0  0  0  0  0  0
   98.1202  217.7240  320.9241 C   0  0  2  0  0  0  0  0  0  0  0  0
   97.9409  217.9907  319.4026 C   0  0  1  0  0  0  0  0  0  0  0  0
   96.7502  218.9424  319.1426 C   0  0  1  0  0  0  0  0  0  0  0  0
   96.7678  220.0395  320.2032 C   0  0  1  0  0  0  0  0  0  0  0  0
   80.0000  210.3093  324.8341 C   0  0  0  0  0  0  0  0  0  0  0  0
   79.7732  211.7919  325.0894 C   0  0  0  0  0  0  0  0  0  0  0  0
   81.0412  212.5455  325.4993 C   0  0  0  0  0  0  0  0  0  0  0  0
   80.9048  214.0666  325.3860 C   0  0  0  0  0  0  0  0  0  0  0  0
   82.1967  214.7738  325.7949 C   0  0  0  0  0  0  0  0  0  0  0  0
   82.1115  216.3048  325.7849 C   0  0  0  0  0  0  0  0  0  0  0  0
   83.0705  217.0246  326.7405 C   0  0  0  0  0  0  0  0  0  0  0  0
   84.5183  216.5363  326.6417 C   0  0  0  0  0  0  0  0  0  0  0  0
   85.4995  217.7113  326.6066 C   0  0  0  0  0  0  0  0  0  0  0  0
   85.9994  217.9725  325.1830 C   0  0  0  0  0  0  0  0  0  0  0  0
   87.5198  218.1286  325.1439 C   0  0  0  0  0  0  0  0  0  0  0  0
   88.0110  219.5753  325.2434 C   0  0  0  0  0  0  0  0  0  0  0  0
   88.8311  220.1084  324.0633 C   0  0  0  0  0  0  0  0  0  0  0  0
   90.2261  219.4830  323.9213 C   0  0  0  0  0  0  0  0  0  0  0  0
   90.9032  219.8681  322.5949 C   0  0  1  0  0  0  0  0  0  0  0  0
   90.4554  221.1688  322.2068 O   0  0  0  0  0  0  0  0  0  0  0  0
   92.4539  219.8518  322.6781 C   0  0  1  0  0  0  0  0  0  0  0  0
   92.8543  220.6808  323.7828 O   0  0  0  0  0  0  0  0  0  0  0  0
   93.0594  218.4256  322.8201 C   0  0  2  0  0  0  0  0  0  0  0  0
   94.5997  218.3941  322.7319 C   0  0  0  0  0  0  0  0  0  0  0  0
   95.0303  219.3045  321.7063 O   0  0  0  0  0  0  0  0  0  0  0  0
   95.8710  221.1106  319.8535 O   0  0  0  0  0  0  0  0  0  0  0  0
   96.7820  219.5513  317.8397 O   0  0  0  0  0  0  0  0  0  0  0  0
   96.9244  218.0290  321.6510 O   0  0  0  0  0  0  0  0  0  0  0  0
   99.8818  217.5377  322.5928 O   0  0  0  0  0  0  0  0  0  0  0  0
   99.1559  218.5453  318.8748 O   0  0  0  0  0  0  0  0  0  0  0  0
   99.5403  218.0201  317.6056 C   0  0  0  0  0  0  0  0  0  0  0  0
  100.7332  217.1351  317.7814 C   0  0  2  0  0  0  0  0  0  0  0  0
  101.0628  216.0934  316.7452 C   0  0  0  0  0  0  0  0  0  0  0  0
  100.5836  215.6712  318.1050 C   0  0  0  0  0  0  0  0  0  0  0  0
   92.4446  217.4376  321.9038 N   0  0  0  0  0  0  0  0  0  0  0  0
   91.6323  216.4050  322.3205 C   0  0  0  0  0  0  0  0  0  0  0  0
   91.5196  216.0448  323.4844 O   0  0  0  0  0  0  0  0  0  0  0  0
   90.9121  215.7086  321.1774 C   0  0  0  0  0  0  0  0  0  0  0  0
   90.4376  214.3152  321.5884 C   0  0  0  0  0  0  0  0  0  0  0  0
   91.5754  213.2952  321.5320 C   0  0  0  0  0  0  0  0  0  0  0  0
   91.7028  212.5348  322.8530 C   0  0  0  0  0  0  0  0  0  0  0  0
   91.1187  211.1247  322.7433 C   0  0  0  0  0  0  0  0  0  0  0  0
   89.5884  211.1549  322.6965 C   0  0  0  0  0  0  0  0  0  0  0  0
   88.9817  209.9450  321.9790 C   0  0  0  0  0  0  0  0  0  0  0  0
   87.4579  209.8607  322.1032 C   0  0  0  0  0  0  0  0  0  0  0  0
   86.8872  208.8306  321.1237 C   0  0  0  0  0  0  0  0  0  0  0  0
   87.1171  209.1764  319.6490 C   0  0  0  0  0  0  0  0  0  0  0  0
   86.4878  208.2336  318.6145 C   0  0  0  0  0  0  0  0  0  0  0  0
   86.6044  208.6836  317.1516 C   0  0  0  0  0  0  0  0  0  0  0  0
   85.4394  209.4879  316.5728 C   0  0  0  0  0  0  0  0  0  0  0  0
   85.6319  209.8612  315.1025 C   0  0  0  0  0  0  0  0  0  0  0  0
   87.1040  210.1241  314.7763 C   0  0  0  0  0  0  0  0  0  0  0  0
   87.3929  211.5979  314.4749 C   0  0  0  0  0  0  0  0  0  0  0  0
   87.2563  212.0124  313.0067 C   0  0  0  0  0  0  0  0  0  0  0  0
   86.1275  213.0042  312.7091 C   0  0  0  0  0  0  0  0  0  0  0  0
   86.0008  214.1686  313.6965 C   0  0  0  0  0  0  0  0  0  0  0  0
   85.2844  215.4108  313.1564 C   0  0  0  0  0  0  0  0  0  0  0  0
   86.0749  216.2272  312.1295 C   0  0  0  0  0  0  0  0  0  0  0  0
   85.3084  217.3619  311.4439 C   0  0  0  0  0  0  0  0  0  0  0  0
   86.0113  218.0800  310.2862 C   0  0  0  0  0  0  0  0  0  0  0  0
   85.5404  219.5073  309.9977 C   0  0  0  0  0  0  0  0  0  0  0  0
   86.0612  220.5656  310.9551 C   0  0  0  0  0  0  0  0  0  0  0  0
  1  6  1  0
  1 27  1  6
  1 30  1  0
  3  2  1  1
  2 31  1  0
  3  4  1  0
 30  3  1  0
  5  4  1  0
  4 32  1  1
  6  5  1  0
  5 29  1  6
  6 28  1  6
  8  7  1  0
  9  8  1  0
 10  9  1  0
 11 10  1  0
 12 11  1  0
 13 12  1  0
 14 13  1  0
 15 14  1  0
 16 15  1  0
 17 16  1  0
 18 17  1  0
 19 18  1  0
 20 19  1  0
 21 20  1  0
 21 22  1  1
 23 21  1  0
 23 24  1  1
 25 23  1  0
 25 26  1  6
 25 37  1  0
 26 27  1  0
 32 33  1  0
 34 33  1  6
 34 35  1  0
 34 36  1  0
 35 36  1  0
 37 38  1  0
 38 39  2  0
 38 40  1  0
 40 41  1  0
 41 42  1  0
 42 43  1  0
 43 44  1  0
 44 45  1  0
 45 46  1  0
 46 47  1  0
 47 48  1  0
 48 49  1  0
 49 50  1  0
 50 51  1  0
 51 52  1  0
 52 53  1  0
 53 54  1  0
 54 55  1  0
 55 56  1  0
 56 57  1  0
 57 58  1  0
 58 59  1  0
 59 60  1  0
 60 61  1  0
 61 62  1  0
 62 63  1  0
 63 64  1  0
M  END
$$$$
