
     RDKit          3D

 64 65  0  0  0  0  0  0  0  0999 V2000
   97.9726  219.3661  324.5278 C   0  0  1  0  0  0  0  0  0  0  0  0
   98.2372  221.1825  326.9950 C   0  0  0  0  0  0  0  0  0  0  0  0
   97.3963  219.8997  326.8321 C   0  0  2  0  0  0  0  0  0  0  0  0
   98.0468  218.6057  327.3985 C   0  0  1  0  0  0  0  0  0  0  0  0
   98.4920  217.6629  326.2567 C   0  0  1  0  0  0  0  0  0  0  0  0
   99.1056  218.5076  325.1438 C   0  0  1  0  0  0  0  0  0  0  0  0
   83.4925  216.7523  312.3708 C   0  0  0  0  0  0  0  0  0  0  0  0
   84.1239  216.0638  313.5717 C   0  0  0  0  0  0  0  0  0  0  0  0
   83.5741  214.6592  313.8335 C   0  0  0  0  0  0  0  0  0  0  0  0
   84.1904  213.9874  315.0637 C   0  0  0  0  0  0  0  0  0  0  0  0
   85.7105  213.8854  314.9400 C   0  0  0  0  0  0  0  0  0  0  0  0
   86.4174  213.3876  316.2065 C   0  0  0  0  0  0  0  0  0  0  0  0
   87.8425  212.8604  316.0020 C   0  0  0  0  0  0  0  0  0  0  0  0
   88.7134  212.9391  317.2589 C   0  0  0  0  0  0  0  0  0  0  0  0
   89.6262  214.1681  317.2260 C   0  0  0  0  0  0  0  0  0  0  0  0
   90.5260  214.2225  318.4638 C   0  0  0  0  0  0  0  0  0  0  0  0
   91.5819  215.3211  318.3398 C   0  0  0  0  0  0  0  0  0  0  0  0
   92.7412  215.2009  319.3326 C   0  0  0  0  0  0  0  0  0  0  0  0
   94.0405  215.9276  318.9678 C   0  0  0  0  0  0  0  0  0  0  0  0
   95.2266  215.6167  319.8917 C   0  0  0  0  0  0  0  0  0  0  0  0
   94.9196  215.9469  321.3624 C   0  0  1  0  0  0  0  0  0  0  0  0
   94.8577  214.7287  322.1075 O   0  0  0  0  0  0  0  0  0  0  0  0
   95.9669  216.8988  322.0020 C   0  0  1  0  0  0  0  0  0  0  0  0
   97.2684  216.5284  321.5154 O   0  0  0  0  0  0  0  0  0  0  0  0
   95.6926  218.4060  321.7305 C   0  0  2  0  0  0  0  0  0  0  0  0
   96.5322  219.3573  322.6088 C   0  0  0  0  0  0  0  0  0  0  0  0
   97.3145  218.5787  323.5298 O   0  0  0  0  0  0  0  0  0  0  0  0
   99.7966  217.6806  324.1885 O   0  0  0  0  0  0  0  0  0  0  0  0
   99.4496  216.6744  326.6753 O   0  0  0  0  0  0  0  0  0  0  0  0
   96.9631  219.7159  325.4793 O   0  0  0  0  0  0  0  0  0  0  0  0
   97.5120  222.1478  327.7568 O   0  0  0  0  0  0  0  0  0  0  0  0
   99.1661  218.9634  328.2241 O   0  0  0  0  0  0  0  0  0  0  0  0
   98.9335  218.8234  329.6244 C   0  0  0  0  0  0  0  0  0  0  0  0
   98.9389  217.3707  329.9803 C   0  0  2  0  0  0  0  0  0  0  0  0
   99.1612  216.9410  331.4062 C   0  0  0  0  0  0  0  0  0  0  0  0
  100.2109  216.6624  330.3682 C   0  0  0  0  0  0  0  0  0  0  0  0
   94.2538  218.7543  321.7779 N   0  0  0  0  0  0  0  0  0  0  0  0
   93.7711  220.0412  321.6742 C   0  0  0  0  0  0  0  0  0  0  0  0
   94.4672  221.0450  321.7444 O   0  0  0  0  0  0  0  0  0  0  0  0
   92.2613  220.1050  321.5101 C   0  0  0  0  0  0  0  0  0  0  0  0
   91.8478  219.8128  320.0682 C   0  0  0  0  0  0  0  0  0  0  0  0
   90.3283  219.8497  319.9013 C   0  0  0  0  0  0  0  0  0  0  0  0
   89.9174  219.4470  318.4840 C   0  0  0  0  0  0  0  0  0  0  0  0
   88.4673  218.9601  318.4410 C   0  0  0  0  0  0  0  0  0  0  0  0
   88.2866  217.8291  317.4247 C   0  0  0  0  0  0  0  0  0  0  0  0
   86.8399  217.3366  317.3193 C   0  0  0  0  0  0  0  0  0  0  0  0
   86.7150  215.8113  317.2693 C   0  0  0  0  0  0  0  0  0  0  0  0
   86.3234  215.2511  318.6402 C   0  0  0  0  0  0  0  0  0  0  0  0
   85.6749  213.8641  318.5864 C   0  0  0  0  0  0  0  0  0  0  0  0
   85.8180  212.9882  319.8383 C   0  0  0  0  0  0  0  0  0  0  0  0
   85.2561  211.5647  319.7180 C   0  0  0  0  0  0  0  0  0  0  0  0
   84.2729  211.1080  320.7967 C   0  0  0  0  0  0  0  0  0  0  0  0
   83.8413  209.6490  320.6447 C   0  0  0  0  0  0  0  0  0  0  0  0
   82.9173  209.2135  321.7844 C   0  0  0  0  0  0  0  0  0  0  0  0
   82.3869  207.7871  321.6088 C   0  0  0  0  0  0  0  0  0  0  0  0
   81.6640  207.1955  322.8228 C   0  0  0  0  0  0  0  0  0  0  0  0
   82.5691  206.5221  323.8590 C   0  0  0  0  0  0  0  0  0  0  0  0
   81.8672  206.0576  325.1391 C   0  0  0  0  0  0  0  0  0  0  0  0
   81.6483  207.1436  326.1976 C   0  0  0  0  0  0  0  0  0  0  0  0
   82.8681  207.4663  327.0659 C   0  0  0  0  0  0  0  0  0  0  0  0
   82.8758  206.8454  328.4658 C   0  0  0  0  0  0  0  0  0  0  0  0
   84.0563  207.1957  329.3787 C   0  0  0  0  0  0  0  0  0  0  0  0
   83.9035  206.8080  330.8513 C   0  0  0  0  0  0  0  0  0  0  0  0
   82.6818  207.3833  331.5475 C   0  0  0  0  0  0  0  0  0  0  0  0
  1  6  1  0
  1 27  1  6
  1 30  1  0
  3  2  1  6
  2 31  1  0
  3  4  1  0
 30  3  1  0
  5  4  1  0
  4 32  1  6
  6  5  1  0
  5 29  1  1
  6 28  1  6
  8  7  1  0
  9  8  1  0
 10  9  1  0
 11 10  1  0
 12 11  1  0
 13 12  1  0
 14 13  1  0
 15 14  1  0
 16 15  1  0
 17 16  1  0
 18 17  1  0
 19 18  1  0
 20 19  1  0
 21 20  1  0
 21 22  1  1
 23 21  1  0
 23 24  1  6
 25 23  1  0
 25 26  1  1
 25 37  1  0
 26 27  1  0
 32 33  1  0
 34 33  1  1
 34 35  1  0
 34 36  1  0
 35 36  1  0
 37 38  1  0
 38 39  2  0
 38 40  1  0
 40 41  1  0
 41 42  1  0
 42 43  1  0
 43 44  1  0
 44 45  1  0
 45 46  1  0
 46 47  1  0
 47 48  1  0
 48 49  1  0
 49 50  1  0
 50 51  1  0
 51 52  1  0
 52 53  1  0
 53 54  1  0
 54 55  1  0
 55 56  1  0
 56 57  1  0
 57 58  1  0
 58 59  1  0
 59 60  1  0
 60 61  1  0
 61 62  1  0
 62 63  1  0
 63 64  1  0
M  END
$$$$
