
     RDKit          3D

 64 65  0  0  0  0  0  0  0  0999 V2000
   97.0960  220.7376  322.7786 C   0  0  1  0  0  0  0  0  0  0  0  0
   95.9436  222.6728  320.6849 C   0  0  0  0  0  0  0  0  0  0  0  0
   95.1892  221.8407  321.7422 C   0  0  2  0  0  0  0  0  0  0  0  0
   94.8040  222.6096  323.0378 C   0  0  1  0  0  0  0  0  0  0  0  0
   95.6556  222.1356  324.2382 C   0  0  1  0  0  0  0  0  0  0  0  0
   97.0915  221.9341  323.7626 C   0  0  1  0  0  0  0  0  0  0  0  0
   86.7131  215.0564  312.8214 C   0  0  0  0  0  0  0  0  0  0  0  0
   85.6603  214.8755  313.9049 C   0  0  0  0  0  0  0  0  0  0  0  0
   86.2436  214.7716  315.3166 C   0  0  0  0  0  0  0  0  0  0  0  0
   85.3228  214.0435  316.3000 C   0  0  0  0  0  0  0  0  0  0  0  0
   86.1203  213.1661  317.2647 C   0  0  0  0  0  0  0  0  0  0  0  0
   86.4549  213.8369  318.6024 C   0  0  0  0  0  0  0  0  0  0  0  0
   87.9178  213.7262  319.0476 C   0  0  0  0  0  0  0  0  0  0  0  0
   88.0958  213.6772  320.5676 C   0  0  0  0  0  0  0  0  0  0  0  0
   89.4815  213.1480  320.9477 C   0  0  0  0  0  0  0  0  0  0  0  0
   90.5460  214.2411  320.8188 C   0  0  0  0  0  0  0  0  0  0  0  0
   91.5941  214.1346  321.9267 C   0  0  0  0  0  0  0  0  0  0  0  0
   91.3585  215.0719  323.1141 C   0  0  0  0  0  0  0  0  0  0  0  0
   92.4694  215.1435  324.1678 C   0  0  0  0  0  0  0  0  0  0  0  0
   93.4041  216.3535  324.0284 C   0  0  0  0  0  0  0  0  0  0  0  0
   94.7494  216.1337  324.7411 C   0  0  1  0  0  0  0  0  0  0  0  0
   95.2985  214.8835  324.3186 O   0  0  0  0  0  0  0  0  0  0  0  0
   95.7715  217.2717  324.4725 C   0  0  1  0  0  0  0  0  0  0  0  0
   96.9350  217.0325  325.2830 O   0  0  0  0  0  0  0  0  0  0  0  0
   96.1707  217.4155  322.9756 C   0  0  2  0  0  0  0  0  0  0  0  0
   97.3727  218.3545  322.7417 C   0  0  0  0  0  0  0  0  0  0  0  0
   97.2104  219.5347  323.5461 O   0  0  0  0  0  0  0  0  0  0  0  0
   97.9880  221.7755  324.8785 O   0  0  0  0  0  0  0  0  0  0  0  0
   95.6535  223.0619  325.3389 O   0  0  0  0  0  0  0  0  0  0  0  0
   95.8733  220.6194  322.0451 O   0  0  0  0  0  0  0  0  0  0  0  0
   95.2601  222.6066  319.4333 O   0  0  0  0  0  0  0  0  0  0  0  0
   94.9781  224.0183  322.8193 O   0  0  0  0  0  0  0  0  0  0  0  0
   94.0139  224.8395  323.4753 C   0  0  0  0  0  0  0  0  0  0  0  0
   93.9799  226.1806  322.8138 C   0  0  2  0  0  0  0  0  0  0  0  0
   92.9122  227.1778  323.1780 C   0  0  0  0  0  0  0  0  0  0  0  0
   92.9063  226.5379  321.8189 C   0  0  0  0  0  0  0  0  0  0  0  0
   95.0299  217.7682  322.0994 N   0  0  0  0  0  0  0  0  0  0  0  0
   94.5283  216.9385  321.1199 C   0  0  0  0  0  0  0  0  0  0  0  0
   95.0076  215.8514  320.8269 O   0  0  0  0  0  0  0  0  0  0  0  0
   93.3326  217.5267  320.3886 C   0  0  0  0  0  0  0  0  0  0  0  0
   93.3747  217.1916  318.8982 C   0  0  0  0  0  0  0  0  0  0  0  0
   91.9872  216.8360  318.3632 C   0  0  0  0  0  0  0  0  0  0  0  0
   91.4147  217.9709  317.5123 C   0  0  0  0  0  0  0  0  0  0  0  0
   90.8697  217.4494  316.1809 C   0  0  0  0  0  0  0  0  0  0  0  0
   89.3896  217.8009  316.0059 C   0  0  0  0  0  0  0  0  0  0  0  0
   88.8017  217.2993  314.6831 C   0  0  0  0  0  0  0  0  0  0  0  0
   87.7492  216.2011  314.8587 C   0  0  0  0  0  0  0  0  0  0  0  0
   86.3448  216.7410  314.5711 C   0  0  0  0  0  0  0  0  0  0  0  0
   85.2386  215.6850  314.6632 C   0  0  0  0  0  0  0  0  0  0  0  0
   84.0319  215.8690  313.7333 C   0  0  0  0  0  0  0  0  0  0  0  0
   84.2041  216.9167  312.6246 C   0  0  0  0  0  0  0  0  0  0  0  0
   83.2385  218.1026  312.6274 C   0  0  0  0  0  0  0  0  0  0  0  0
   81.7731  217.6905  312.7717 C   0  0  0  0  0  0  0  0  0  0  0  0
   80.8318  218.7409  312.1776 C   0  0  0  0  0  0  0  0  0  0  0  0
   80.9546  220.1057  312.8625 C   0  0  0  0  0  0  0  0  0  0  0  0
   80.5813  221.3151  311.9999 C   0  0  0  0  0  0  0  0  0  0  0  0
   80.8822  222.6814  312.6236 C   0  0  0  0  0  0  0  0  0  0  0  0
   81.4364  223.7346  311.6588 C   0  0  0  0  0  0  0  0  0  0  0  0
   82.8456  223.4573  311.1249 C   0  0  0  0  0  0  0  0  0  0  0  0
   83.4498  224.5708  310.2638 C   0  0  0  0  0  0  0  0  0  0  0  0
   84.4908  225.4584  310.9521 C   0  0  0  0  0  0  0  0  0  0  0  0
   85.7198  225.8604  310.1289 C   0  0  0  0  0  0  0  0  0  0  0  0
   87.0409  225.2006  310.5303 C   0  0  0  0  0  0  0  0  0  0  0  0
   88.1187  225.2081  309.4595 C   0  0  0  0  0  0  0  0  0  0  0  0
  1  6  1  0
  1 27  1  1
  1 30  1  0
  3  2  1  6
  2 31  1  0
  3  4  1  0
 30  3  1  0
  5  4  1  0
  4 32  1  6
  6  5  1  0
  5 29  1  1
  6 28  1  1
  8  7  1  0
  9  8  1  0
 10  9  1  0
 11 10  1  0
 12 11  1  0
 13 12  1  0
 14 13  1  0
 15 14  1  0
 16 15  1  0
 17 16  1  0
 18 17  1  0
 19 18  1  0
 20 19  1  0
 21 20  1  0
 21 22  1  6
 23 21  1  0
 23 24  1  1
 25 23  1  0
 25 26  1  1
 25 37  1  0
 26 27  1  0
 32 33  1  0
 34 33  1  1
 34 35  1  0
 34 36  1  0
 35 36  1  0
 37 38  1  0
 38 39  2  0
 38 40  1  0
 40 41  1  0
 41 42  1  0
 42 43  1  0
 43 44  1  0
 44 45  1  0
 45 46  1  0
 46 47  1  0
 47 48  1  0
 48 49  1  0
 49 50  1  0
 50 51  1  0
 51 52  1  0
 52 53  1  0
 53 54  1  0
 54 55  1  0
 55 56  1  0
 56 57  1  0
 57 58  1  0
 58 59  1  0
 59 60  1  0
 60 61  1  0
 61 62  1  0
 62 63  1  0
 63 64  1  0
M  END
$$$$
