
     RDKit          3D

 64 65  0  0  0  0  0  0  0  0999 V2000
   97.9353  218.0437  325.3448 C   0  0  1  0  0  0  0  0  0  0  0  0
   98.5699  218.6224  328.2976 C   0  0  0  0  0  0  0  0  0  0  0  0
   97.5885  217.5871  327.7108 C   0  0  2  0  0  0  0  0  0  0  0  0
   98.1384  216.1358  327.6127 C   0  0  1  0  0  0  0  0  0  0  0  0
   98.3968  215.7387  326.1408 C   0  0  1  0  0  0  0  0  0  0  0  0
   99.0133  216.9335  325.4189 C   0  0  1  0  0  0  0  0  0  0  0  0
   84.3408  223.2263  312.7216 C   0  0  0  0  0  0  0  0  0  0  0  0
   83.7312  222.7057  314.0149 C   0  0  0  0  0  0  0  0  0  0  0  0
   84.4012  221.4338  314.5410 C   0  0  0  0  0  0  0  0  0  0  0  0
   84.9060  221.5665  315.9807 C   0  0  0  0  0  0  0  0  0  0  0  0
   85.6848  220.3249  316.4147 C   0  0  0  0  0  0  0  0  0  0  0  0
   86.5347  220.5188  317.6762 C   0  0  0  0  0  0  0  0  0  0  0  0
   88.0046  220.1011  317.5514 C   0  0  0  0  0  0  0  0  0  0  0  0
   88.1981  218.7020  316.9604 C   0  0  0  0  0  0  0  0  0  0  0  0
   88.9431  217.7856  317.9349 C   0  0  0  0  0  0  0  0  0  0  0  0
   89.4628  216.5309  317.2275 C   0  0  0  0  0  0  0  0  0  0  0  0
   90.8950  216.2032  317.6502 C   0  0  0  0  0  0  0  0  0  0  0  0
   91.6280  217.3514  318.3489 C   0  0  0  0  0  0  0  0  0  0  0  0
   93.0719  217.0830  318.7877 C   0  0  0  0  0  0  0  0  0  0  0  0
   93.3933  217.5174  320.2249 C   0  0  0  0  0  0  0  0  0  0  0  0
   94.8629  217.2555  320.5961 C   0  0  1  0  0  0  0  0  0  0  0  0
   95.6498  217.2594  319.4029 O   0  0  0  0  0  0  0  0  0  0  0  0
   95.4297  218.2959  321.6002 C   0  0  1  0  0  0  0  0  0  0  0  0
   95.0311  219.6067  321.1635 O   0  0  0  0  0  0  0  0  0  0  0  0
   94.9859  218.0536  323.0716 C   0  0  2  0  0  0  0  0  0  0  0  0
   95.9604  218.6353  324.1172 C   0  0  0  0  0  0  0  0  0  0  0  0
   97.1265  217.7979  324.1895 O   0  0  0  0  0  0  0  0  0  0  0  0
   99.5414  216.5461  324.1363 O   0  0  0  0  0  0  0  0  0  0  0  0
   99.2727  214.6060  326.0020 O   0  0  0  0  0  0  0  0  0  0  0  0
   97.0407  218.0222  326.4610 O   0  0  0  0  0  0  0  0  0  0  0  0
   98.2406  218.8887  329.6609 O   0  0  0  0  0  0  0  0  0  0  0  0
   99.3465  216.0363  328.3827 O   0  0  0  0  0  0  0  0  0  0  0  0
   99.5177  214.7880  329.0511 C   0  0  0  0  0  0  0  0  0  0  0  0
   98.9349  214.8828  330.4253 C   0  0  2  0  0  0  0  0  0  0  0  0
   99.7473  214.4672  331.6229 C   0  0  0  0  0  0  0  0  0  0  0  0
   98.5582  213.6499  331.2049 C   0  0  0  0  0  0  0  0  0  0  0  0
   94.6675  216.6358  323.3584 N   0  0  0  0  0  0  0  0  0  0  0  0
   93.4169  216.0806  323.1926 C   0  0  0  0  0  0  0  0  0  0  0  0
   92.5001  216.6183  322.5864 O   0  0  0  0  0  0  0  0  0  0  0  0
   93.2600  214.7364  323.8847 C   0  0  0  0  0  0  0  0  0  0  0  0
   92.3166  213.8195  323.1069 C   0  0  0  0  0  0  0  0  0  0  0  0
   91.8327  214.4779  321.8145 C   0  0  0  0  0  0  0  0  0  0  0  0
   91.3554  213.4319  320.8058 C   0  0  0  0  0  0  0  0  0  0  0  0
   90.3933  214.0411  319.7835 C   0  0  0  0  0  0  0  0  0  0  0  0
   89.0388  213.3270  319.7948 C   0  0  0  0  0  0  0  0  0  0  0  0
   88.3194  213.3743  318.4432 C   0  0  0  0  0  0  0  0  0  0  0  0
   87.4600  214.6270  318.2511 C   0  0  0  0  0  0  0  0  0  0  0  0
   86.8326  214.6487  316.8539 C   0  0  0  0  0  0  0  0  0  0  0  0
   85.9356  215.8625  316.5905 C   0  0  0  0  0  0  0  0  0  0  0  0
   85.3226  215.9742  315.1882 C   0  0  0  0  0  0  0  0  0  0  0  0
   86.0715  216.8892  314.2092 C   0  0  0  0  0  0  0  0  0  0  0  0
   85.4837  217.0409  312.8054 C   0  0  0  0  0  0  0  0  0  0  0  0
   86.2392  218.0480  311.9377 C   0  0  0  0  0  0  0  0  0  0  0  0
   85.6755  218.1006  310.5158 C   0  0  0  0  0  0  0  0  0  0  0  0
   84.9839  219.4302  310.1984 C   0  0  0  0  0  0  0  0  0  0  0  0
   85.0492  219.8774  308.7349 C   0  0  0  0  0  0  0  0  0  0  0  0
   83.9242  220.8156  308.2866 C   0  0  0  0  0  0  0  0  0  0  0  0
   82.8775  220.1881  307.3605 C   0  0  0  0  0  0  0  0  0  0  0  0
   82.4957  221.0291  306.1379 C   0  0  0  0  0  0  0  0  0  0  0  0
   81.1181  221.6953  306.2065 C   0  0  0  0  0  0  0  0  0  0  0  0
   81.0318  223.1136  305.6354 C   0  0  0  0  0  0  0  0  0  0  0  0
   79.9862  223.3640  304.5429 C   0  0  0  0  0  0  0  0  0  0  0  0
   79.8390  224.8138  304.0752 C   0  0  0  0  0  0  0  0  0  0  0  0
   78.7866  225.0434  303.0038 C   0  0  0  0  0  0  0  0  0  0  0  0
  1  6  1  0
  1 27  1  6
  1 30  1  0
  3  2  1  6
  2 31  1  0
  3  4  1  0
 30  3  1  0
  5  4  1  0
  4 32  1  1
  6  5  1  0
  5 29  1  1
  6 28  1  6
  8  7  1  0
  9  8  1  0
 10  9  1  0
 11 10  1  0
 12 11  1  0
 13 12  1  0
 14 13  1  0
 15 14  1  0
 16 15  1  0
 17 16  1  0
 18 17  1  0
 19 18  1  0
 20 19  1  0
 21 20  1  0
 21 22  1  6
 23 21  1  0
 23 24  1  6
 25 23  1  0
 25 26  1  1
 25 37  1  0
 26 27  1  0
 32 33  1  0
 34 33  1  6
 34 35  1  0
 34 36  1  0
 35 36  1  0
 37 38  1  0
 38 39  2  0
 38 40  1  0
 40 41  1  0
 41 42  1  0
 42 43  1  0
 43 44  1  0
 44 45  1  0
 45 46  1  0
 46 47  1  0
 47 48  1  0
 48 49  1  0
 49 50  1  0
 50 51  1  0
 51 52  1  0
 52 53  1  0
 53 54  1  0
 54 55  1  0
 55 56  1  0
 56 57  1  0
 57 58  1  0
 58 59  1  0
 59 60  1  0
 60 61  1  0
 61 62  1  0
 62 63  1  0
 63 64  1  0
M  END
$$$$
