
     RDKit          3D

 64 65  0  0  0  0  0  0  0  0999 V2000
   97.2294  216.9573  323.8272 C   0  0  1  0  0  0  0  0  0  0  0  0
   98.2542  219.5449  325.1352 C   0  0  0  0  0  0  0  0  0  0  0  0
   96.8242  218.9666  325.1406 C   0  0  2  0  0  0  0  0  0  0  0  0
   96.4368  218.1717  326.4198 C   0  0  1  0  0  0  0  0  0  0  0  0
   96.3337  216.6579  326.1223 C   0  0  1  0  0  0  0  0  0  0  0  0
   97.4793  216.2689  325.1924 C   0  0  1  0  0  0  0  0  0  0  0  0
   80.9505  214.1688  322.8737 C   0  0  0  0  0  0  0  0  0  0  0  0
   82.3672  213.6193  322.7983 C   0  0  0  0  0  0  0  0  0  0  0  0
   82.4509  212.1055  323.0112 C   0  0  0  0  0  0  0  0  0  0  0  0
   83.8819  211.5637  322.9492 C   0  0  0  0  0  0  0  0  0  0  0  0
   83.9229  210.0639  323.2416 C   0  0  0  0  0  0  0  0  0  0  0  0
   85.1772  209.3512  322.7222 C   0  0  0  0  0  0  0  0  0  0  0  0
   86.4425  210.2139  322.6477 C   0  0  0  0  0  0  0  0  0  0  0  0
   87.6762  209.4543  322.1522 C   0  0  0  0  0  0  0  0  0  0  0  0
   88.9427  209.9197  322.8761 C   0  0  0  0  0  0  0  0  0  0  0  0
   90.0382  210.3093  321.8797 C   0  0  0  0  0  0  0  0  0  0  0  0
   89.5927  211.4636  320.9817 C   0  0  0  0  0  0  0  0  0  0  0  0
   90.3955  212.7545  321.1638 C   0  0  0  0  0  0  0  0  0  0  0  0
   91.6926  212.8804  320.3568 C   0  0  0  0  0  0  0  0  0  0  0  0
   92.4728  214.1798  320.6017 C   0  0  0  0  0  0  0  0  0  0  0  0
   93.3208  214.1156  321.8835 C   0  0  1  0  0  0  0  0  0  0  0  0
   93.1065  212.8528  322.5179 O   0  0  0  0  0  0  0  0  0  0  0  0
   94.8377  214.3172  321.6183 C   0  0  1  0  0  0  0  0  0  0  0  0
   95.2950  213.2422  320.7798 O   0  0  0  0  0  0  0  0  0  0  0  0
   95.1851  215.6923  320.9786 C   0  0  2  0  0  0  0  0  0  0  0  0
   96.3739  216.4079  321.6538 C   0  0  0  0  0  0  0  0  0  0  0  0
   96.3591  216.1173  323.0616 O   0  0  0  0  0  0  0  0  0  0  0  0
   97.6135  214.8374  325.1085 O   0  0  0  0  0  0  0  0  0  0  0  0
   96.3930  215.8401  327.3043 O   0  0  0  0  0  0  0  0  0  0  0  0
   96.5516  218.2107  323.9550 O   0  0  0  0  0  0  0  0  0  0  0  0
   98.4211  220.4232  324.0222 O   0  0  0  0  0  0  0  0  0  0  0  0
   97.4131  218.4205  327.4431 O   0  0  0  0  0  0  0  0  0  0  0  0
   97.3250  217.5457  328.5662 C   0  0  0  0  0  0  0  0  0  0  0  0
   97.3386  218.3569  329.8228 C   0  0  2  0  0  0  0  0  0  0  0  0
   98.2533  217.9799  330.9579 C   0  0  0  0  0  0  0  0  0  0  0  0
   96.7673  217.8204  331.1096 C   0  0  0  0  0  0  0  0  0  0  0  0
   94.0134  216.5897  320.8539 N   0  0  0  0  0  0  0  0  0  0  0  0
   94.1008  217.9270  320.5317 C   0  0  0  0  0  0  0  0  0  0  0  0
   95.0906  218.4535  320.0415 O   0  0  0  0  0  0  0  0  0  0  0  0
   92.8514  218.7144  320.8913 C   0  0  0  0  0  0  0  0  0  0  0  0
   92.3191  219.4897  319.6867 C   0  0  0  0  0  0  0  0  0  0  0  0
   91.0470  220.2635  320.0345 C   0  0  0  0  0  0  0  0  0  0  0  0
   89.8087  219.5862  319.4448 C   0  0  0  0  0  0  0  0  0  0  0  0
   89.0420  218.8007  320.5110 C   0  0  0  0  0  0  0  0  0  0  0  0
   87.8061  218.1156  319.9208 C   0  0  0  0  0  0  0  0  0  0  0  0
   88.1179  217.2690  318.6828 C   0  0  0  0  0  0  0  0  0  0  0  0
   86.9193  217.0888  317.7471 C   0  0  0  0  0  0  0  0  0  0  0  0
   87.1432  217.8300  316.4254 C   0  0  0  0  0  0  0  0  0  0  0  0
   85.9114  217.8707  315.5154 C   0  0  0  0  0  0  0  0  0  0  0  0
   86.0629  218.6199  314.1847 C   0  0  0  0  0  0  0  0  0  0  0  0
   84.7630  219.1741  313.5853 C   0  0  0  0  0  0  0  0  0  0  0  0
   83.6795  219.6278  314.5648 C   0  0  0  0  0  0  0  0  0  0  0  0
   82.5714  220.4492  313.9050 C   0  0  0  0  0  0  0  0  0  0  0  0
   82.9027  221.9434  313.9037 C   0  0  0  0  0  0  0  0  0  0  0  0
   81.7015  222.8192  313.5340 C   0  0  0  0  0  0  0  0  0  0  0  0
   81.2482  222.7386  312.0731 C   0  0  0  0  0  0  0  0  0  0  0  0
   81.4189  224.0275  311.2631 C   0  0  0  0  0  0  0  0  0  0  0  0
   82.1003  223.8606  309.9012 C   0  0  0  0  0  0  0  0  0  0  0  0
   82.0362  222.4505  309.3048 C   0  0  0  0  0  0  0  0  0  0  0  0
   82.5298  222.3284  307.8600 C   0  0  0  0  0  0  0  0  0  0  0  0
   83.3233  221.0611  307.5291 C   0  0  0  0  0  0  0  0  0  0  0  0
   84.3422  221.1531  306.3876 C   0  0  0  0  0  0  0  0  0  0  0  0
   84.2631  220.0520  305.3276 C   0  0  0  0  0  0  0  0  0  0  0  0
   85.3269  220.1196  304.2451 C   0  0  0  0  0  0  0  0  0  0  0  0
  1  6  1  0
  1 27  1  6
  1 30  1  0
  3  2  1  1
  2 31  1  0
  3  4  1  0
 30  3  1  0
  5  4  1  0
  4 32  1  1
  6  5  1  0
  5 29  1  1
  6 28  1  6
  8  7  1  0
  9  8  1  0
 10  9  1  0
 11 10  1  0
 12 11  1  0
 13 12  1  0
 14 13  1  0
 15 14  1  0
 16 15  1  0
 17 16  1  0
 18 17  1  0
 19 18  1  0
 20 19  1  0
 21 20  1  0
 21 22  1  6
 23 21  1  0
 23 24  1  6
 25 23  1  0
 25 26  1  1
 25 37  1  0
 26 27  1  0
 32 33  1  0
 34 33  1  6
 34 35  1  0
 34 36  1  0
 35 36  1  0
 37 38  1  0
 38 39  2  0
 38 40  1  0
 40 41  1  0
 41 42  1  0
 42 43  1  0
 43 44  1  0
 44 45  1  0
 45 46  1  0
 46 47  1  0
 47 48  1  0
 48 49  1  0
 49 50  1  0
 50 51  1  0
 51 52  1  0
 52 53  1  0
 53 54  1  0
 54 55  1  0
 55 56  1  0
 56 57  1  0
 57 58  1  0
 58 59  1  0
 59 60  1  0
 60 61  1  0
 61 62  1  0
 62 63  1  0
 63 64  1  0
M  END
$$$$
