
     RDKit          3D

 64 65  0  0  0  0  0  0  0  0999 V2000
   95.9269  218.7402  322.0900 C   0  0  1  0  0  0  0  0  0  0  0  0
   98.8531  217.9218  321.6168 C   0  0  0  0  0  0  0  0  0  0  0  0
   98.3072  219.2351  322.2140 C   0  0  2  0  0  0  0  0  0  0  0  0
   98.3120  219.3078  323.7674 C   0  0  1  0  0  0  0  0  0  0  0  0
   96.8740  219.2316  324.3308 C   0  0  1  0  0  0  0  0  0  0  0  0
   96.0953  218.1924  323.5293 C   0  0  1  0  0  0  0  0  0  0  0  0
   87.6986  224.6307  312.0721 C   0  0  0  0  0  0  0  0  0  0  0  0
   86.2884  224.3217  311.5917 C   0  0  0  0  0  0  0  0  0  0  0  0
   85.6784  223.0757  312.2390 C   0  0  0  0  0  0  0  0  0  0  0  0
   84.2867  222.7331  311.6997 C   0  0  0  0  0  0  0  0  0  0  0  0
   83.5550  221.7601  312.6240 C   0  0  0  0  0  0  0  0  0  0  0  0
   84.0530  220.3121  312.5419 C   0  0  0  0  0  0  0  0  0  0  0  0
   85.2354  219.9690  313.4557 C   0  0  0  0  0  0  0  0  0  0  0  0
   85.2295  218.5201  313.9507 C   0  0  0  0  0  0  0  0  0  0  0  0
   86.6539  218.0000  314.1633 C   0  0  0  0  0  0  0  0  0  0  0  0
   86.8949  217.6297  315.6294 C   0  0  0  0  0  0  0  0  0  0  0  0
   88.3880  217.5296  315.9428 C   0  0  0  0  0  0  0  0  0  0  0  0
   88.8456  218.3850  317.1273 C   0  0  0  0  0  0  0  0  0  0  0  0
   90.3577  218.5572  317.3109 C   0  0  0  0  0  0  0  0  0  0  0  0
   90.7888  218.9319  318.7360 C   0  0  0  0  0  0  0  0  0  0  0  0
   92.1498  219.6484  318.7618 C   0  0  1  0  0  0  0  0  0  0  0  0
   92.0433  220.8716  318.0301 O   0  0  0  0  0  0  0  0  0  0  0  0
   92.6539  219.9418  320.2011 C   0  0  1  0  0  0  0  0  0  0  0  0
   91.7909  220.9313  320.7875 O   0  0  0  0  0  0  0  0  0  0  0  0
   92.7307  218.6799  321.1080 C   0  0  2  0  0  0  0  0  0  0  0  0
   93.5520  218.8916  322.3972 C   0  0  0  0  0  0  0  0  0  0  0  0
   94.7695  219.5824  322.0705 O   0  0  0  0  0  0  0  0  0  0  0  0
   94.8523  217.8644  324.1783 O   0  0  0  0  0  0  0  0  0  0  0  0
   96.8266  218.8785  325.7245 O   0  0  0  0  0  0  0  0  0  0  0  0
   97.0201  219.5673  321.6808 O   0  0  0  0  0  0  0  0  0  0  0  0
   98.9524  218.0356  320.1972 O   0  0  0  0  0  0  0  0  0  0  0  0
   99.1159  218.2372  324.2870 O   0  0  0  0  0  0  0  0  0  0  0  0
  100.5051  218.3422  323.9813 C   0  0  0  0  0  0  0  0  0  0  0  0
  101.2571  218.6891  325.2268 C   0  0  2  0  0  0  0  0  0  0  0  0
  101.7233  217.6015  326.1579 C   0  0  0  0  0  0  0  0  0  0  0  0
  100.6313  218.5388  326.5891 C   0  0  0  0  0  0  0  0  0  0  0  0
   93.1676  217.4655  320.3813 N   0  0  0  0  0  0  0  0  0  0  0  0
   93.1339  216.1960  320.9167 C   0  0  0  0  0  0  0  0  0  0  0  0
   92.4178  215.8619  321.8510 O   0  0  0  0  0  0  0  0  0  0  0  0
   94.1197  215.2417  320.2624 C   0  0  0  0  0  0  0  0  0  0  0  0
   93.4194  213.9789  319.7620 C   0  0  0  0  0  0  0  0  0  0  0  0
   92.1896  213.6462  320.6075 C   0  0  0  0  0  0  0  0  0  0  0  0
   91.5748  212.3099  320.1881 C   0  0  0  0  0  0  0  0  0  0  0  0
   90.1061  212.4722  319.7902 C   0  0  0  0  0  0  0  0  0  0  0  0
   89.5297  211.1674  319.2332 C   0  0  0  0  0  0  0  0  0  0  0  0
   89.1843  210.1462  320.3216 C   0  0  0  0  0  0  0  0  0  0  0  0
   87.6789  209.9585  320.5290 C   0  0  0  0  0  0  0  0  0  0  0  0
   87.4043  208.9549  321.6532 C   0  0  0  0  0  0  0  0  0  0  0  0
   85.9936  208.3579  321.6270 C   0  0  0  0  0  0  0  0  0  0  0  0
   85.6686  207.3119  322.7018 C   0  0  0  0  0  0  0  0  0  0  0  0
   84.1768  207.0131  322.9051 C   0  0  0  0  0  0  0  0  0  0  0  0
   83.8082  206.0028  323.9926 C   0  0  0  0  0  0  0  0  0  0  0  0
   82.4490  206.2758  324.6378 C   0  0  0  0  0  0  0  0  0  0  0  0
   82.2297  205.4065  325.8781 C   0  0  0  0  0  0  0  0  0  0  0  0
   80.8474  205.6055  326.5078 C   0  0  0  0  0  0  0  0  0  0  0  0
   80.8358  205.8231  328.0239 C   0  0  0  0  0  0  0  0  0  0  0  0
   80.1510  207.1098  328.4949 C   0  0  0  0  0  0  0  0  0  0  0  0
   79.8993  207.2041  330.0032 C   0  0  0  0  0  0  0  0  0  0  0  0
   81.0633  207.7634  330.8281 C   0  0  0  0  0  0  0  0  0  0  0  0
   80.9379  207.5815  332.3437 C   0  0  0  0  0  0  0  0  0  0  0  0
   82.2492  207.3522  333.1007 C   0  0  0  0  0  0  0  0  0  0  0  0
   83.2780  206.4210  332.4493 C   0  0  0  0  0  0  0  0  0  0  0  0
   84.4586  206.0051  333.3299 C   0  0  0  0  0  0  0  0  0  0  0  0
   85.8049  205.9612  332.6273 C   0  0  0  0  0  0  0  0  0  0  0  0
  1  6  1  0
  1 27  1  1
  1 30  1  0
  3  2  1  1
  2 31  1  0
  3  4  1  0
 30  3  1  0
  5  4  1  0
  4 32  1  1
  6  5  1  0
  5 29  1  1
  6 28  1  1
  8  7  1  0
  9  8  1  0
 10  9  1  0
 11 10  1  0
 12 11  1  0
 13 12  1  0
 14 13  1  0
 15 14  1  0
 16 15  1  0
 17 16  1  0
 18 17  1  0
 19 18  1  0
 20 19  1  0
 21 20  1  0
 21 22  1  6
 23 21  1  0
 23 24  1  1
 25 23  1  0
 25 26  1  1
 25 37  1  0
 26 27  1  0
 32 33  1  0
 34 33  1  6
 34 35  1  0
 34 36  1  0
 35 36  1  0
 37 38  1  0
 38 39  2  0
 38 40  1  0
 40 41  1  0
 41 42  1  0
 42 43  1  0
 43 44  1  0
 44 45  1  0
 45 46  1  0
 46 47  1  0
 47 48  1  0
 48 49  1  0
 49 50  1  0
 50 51  1  0
 51 52  1  0
 52 53  1  0
 53 54  1  0
 54 55  1  0
 55 56  1  0
 56 57  1  0
 57 58  1  0
 58 59  1  0
 59 60  1  0
 60 61  1  0
 61 62  1  0
 62 63  1  0
 63 64  1  0
M  END
$$$$
