
     RDKit          3D

 64 65  0  0  0  0  0  0  0  0999 V2000
   98.6084  217.9394  323.7146 C   0  0  1  0  0  0  0  0  0  0  0  0
   99.3159  217.2198  326.6194 C   0  0  0  0  0  0  0  0  0  0  0  0
   98.1444  216.7027  325.7596 C   0  0  2  0  0  0  0  0  0  0  0  0
   98.3750  215.3175  325.0915 C   0  0  1  0  0  0  0  0  0  0  0  0
   98.5609  215.4626  323.5633 C   0  0  1  0  0  0  0  0  0  0  0  0
   99.4253  216.6914  323.2961 C   0  0  1  0  0  0  0  0  0  0  0  0
   92.5530  224.8061  308.8979 C   0  0  0  0  0  0  0  0  0  0  0  0
   91.9454  223.4934  309.3698 C   0  0  0  0  0  0  0  0  0  0  0  0
   91.0355  223.6422  310.5919 C   0  0  0  0  0  0  0  0  0  0  0  0
   90.6969  222.3071  311.2608 C   0  0  0  0  0  0  0  0  0  0  0  0
   89.8353  222.5108  312.5068 C   0  0  0  0  0  0  0  0  0  0  0  0
   89.3972  221.2117  313.1936 C   0  0  0  0  0  0  0  0  0  0  0  0
   89.0309  221.3412  314.6768 C   0  0  0  0  0  0  0  0  0  0  0  0
   89.4760  220.1478  315.5265 C   0  0  0  0  0  0  0  0  0  0  0  0
   89.0531  220.3182  316.9882 C   0  0  0  0  0  0  0  0  0  0  0  0
   89.4814  219.1145  317.8322 C   0  0  0  0  0  0  0  0  0  0  0  0
   89.8502  219.5325  319.2559 C   0  0  0  0  0  0  0  0  0  0  0  0
   91.1795  218.9637  319.7591 C   0  0  0  0  0  0  0  0  0  0  0  0
   91.6123  219.3680  321.1729 C   0  0  0  0  0  0  0  0  0  0  0  0
   92.9317  220.1504  321.2372 C   0  0  0  0  0  0  0  0  0  0  0  0
   93.9613  219.6381  320.2156 C   0  0  1  0  0  0  0  0  0  0  0  0
   93.9159  220.4708  319.0548 O   0  0  0  0  0  0  0  0  0  0  0  0
   95.4085  219.6029  320.7781 C   0  0  1  0  0  0  0  0  0  0  0  0
   95.9578  220.9290  320.6911 O   0  0  0  0  0  0  0  0  0  0  0  0
   95.5014  219.0696  322.2368 C   0  0  2  0  0  0  0  0  0  0  0  0
   96.8516  219.3685  322.9216 C   0  0  0  0  0  0  0  0  0  0  0  0
   97.7797  218.3160  322.6098 O   0  0  0  0  0  0  0  0  0  0  0  0
   99.8745  216.7196  321.9281 O   0  0  0  0  0  0  0  0  0  0  0  0
   99.1782  214.3153  322.9534 O   0  0  0  0  0  0  0  0  0  0  0  0
   97.7163  217.6781  324.8021 O   0  0  0  0  0  0  0  0  0  0  0  0
   98.8905  217.3909  327.9714 O   0  0  0  0  0  0  0  0  0  0  0  0
   99.5253  214.6942  325.6837 O   0  0  0  0  0  0  0  0  0  0  0  0
   99.2799  213.3966  326.2227 C   0  0  0  0  0  0  0  0  0  0  0  0
  100.3956  213.0306  327.1490 C   0  0  2  0  0  0  0  0  0  0  0  0
  101.1303  211.7282  326.9725 C   0  0  0  0  0  0  0  0  0  0  0  0
  100.2418  211.9305  328.1669 C   0  0  0  0  0  0  0  0  0  0  0  0
   95.1378  217.6390  322.3586 N   0  0  0  0  0  0  0  0  0  0  0  0
   93.8816  217.1400  322.0893 C   0  0  0  0  0  0  0  0  0  0  0  0
   92.8671  217.8220  322.0358 O   0  0  0  0  0  0  0  0  0  0  0  0
   93.8606  215.6308  321.9091 C   0  0  0  0  0  0  0  0  0  0  0  0
   92.4289  215.1008  321.8411 C   0  0  0  0  0  0  0  0  0  0  0  0
   91.7089  215.5880  320.5833 C   0  0  0  0  0  0  0  0  0  0  0  0
   90.2381  215.1682  320.5899 C   0  0  0  0  0  0  0  0  0  0  0  0
   90.0017  213.9794  321.5240 C   0  0  0  0  0  0  0  0  0  0  0  0
   88.5819  213.4251  321.3762 C   0  0  0  0  0  0  0  0  0  0  0  0
   88.5375  212.0472  320.7083 C   0  0  0  0  0  0  0  0  0  0  0  0
   87.1225  211.4783  320.5727 C   0  0  0  0  0  0  0  0  0  0  0  0
   86.1867  212.0887  321.6206 C   0  0  0  0  0  0  0  0  0  0  0  0
   84.8121  211.4167  321.6979 C   0  0  0  0  0  0  0  0  0  0  0  0
   84.4729  210.4131  320.5876 C   0  0  0  0  0  0  0  0  0  0  0  0
   83.9615  211.0249  319.2760 C   0  0  0  0  0  0  0  0  0  0  0  0
   83.1080  212.2896  319.3807 C   0  0  0  0  0  0  0  0  0  0  0  0
   83.0737  213.1064  318.0886 C   0  0  0  0  0  0  0  0  0  0  0  0
   83.2313  214.6035  318.3644 C   0  0  0  0  0  0  0  0  0  0  0  0
   83.8716  215.3600  317.1963 C   0  0  0  0  0  0  0  0  0  0  0  0
   83.0437  216.5131  316.6212 C   0  0  0  0  0  0  0  0  0  0  0  0
   82.5348  216.3038  315.1917 C   0  0  0  0  0  0  0  0  0  0  0  0
   82.4387  217.5721  314.3376 C   0  0  0  0  0  0  0  0  0  0  0  0
   81.1464  217.7207  313.5279 C   0  0  0  0  0  0  0  0  0  0  0  0
   80.2763  218.9252  313.8995 C   0  0  0  0  0  0  0  0  0  0  0  0
   79.0910  219.2060  312.9712 C   0  0  0  0  0  0  0  0  0  0  0  0
   77.9520  220.0644  313.5332 C   0  0  0  0  0  0  0  0  0  0  0  0
   77.0494  219.3872  314.5671 C   0  0  0  0  0  0  0  0  0  0  0  0
   75.6046  219.1964  314.1375 C   0  0  0  0  0  0  0  0  0  0  0  0
  1  6  1  0
  1 27  1  6
  1 30  1  0
  3  2  1  6
  2 31  1  0
  3  4  1  0
 30  3  1  0
  5  4  1  0
  4 32  1  1
  6  5  1  0
  5 29  1  1
  6 28  1  6
  8  7  1  0
  9  8  1  0
 10  9  1  0
 11 10  1  0
 12 11  1  0
 13 12  1  0
 14 13  1  0
 15 14  1  0
 16 15  1  0
 17 16  1  0
 18 17  1  0
 19 18  1  0
 20 19  1  0
 21 20  1  0
 21 22  1  6
 23 21  1  0
 23 24  1  1
 25 23  1  0
 25 26  1  6
 25 37  1  0
 26 27  1  0
 32 33  1  0
 34 33  1  6
 34 35  1  0
 34 36  1  0
 35 36  1  0
 37 38  1  0
 38 39  2  0
 38 40  1  0
 40 41  1  0
 41 42  1  0
 42 43  1  0
 43 44  1  0
 44 45  1  0
 45 46  1  0
 46 47  1  0
 47 48  1  0
 48 49  1  0
 49 50  1  0
 50 51  1  0
 51 52  1  0
 52 53  1  0
 53 54  1  0
 54 55  1  0
 55 56  1  0
 56 57  1  0
 57 58  1  0
 58 59  1  0
 59 60  1  0
 60 61  1  0
 61 62  1  0
 62 63  1  0
 63 64  1  0
M  END
$$$$
