
     RDKit          3D

 64 65  0  0  0  0  0  0  0  0999 V2000
   96.4446  220.3554  320.0833 C   0  0  1  0  0  0  0  0  0  0  0  0
   98.5746  219.0187  318.3134 C   0  0  0  0  0  0  0  0  0  0  0  0
   97.0398  218.9815  318.1637 C   0  0  2  0  0  0  0  0  0  0  0  0
   96.4508  219.9885  317.1354 C   0  0  1  0  0  0  0  0  0  0  0  0
   95.6882  221.1285  317.8495 C   0  0  1  0  0  0  0  0  0  0  0  0
   96.4818  221.5404  319.0861 C   0  0  1  0  0  0  0  0  0  0  0  0
   84.1102  221.4135  308.9142 C   0  0  0  0  0  0  0  0  0  0  0  0
   83.9844  221.1004  310.3978 C   0  0  0  0  0  0  0  0  0  0  0  0
   83.8619  219.6050  310.7017 C   0  0  0  0  0  0  0  0  0  0  0  0
   83.8378  219.2917  312.2004 C   0  0  0  0  0  0  0  0  0  0  0  0
   83.7402  217.7875  312.4537 C   0  0  0  0  0  0  0  0  0  0  0  0
   83.7455  217.3927  313.9354 C   0  0  0  0  0  0  0  0  0  0  0  0
   85.0744  216.8421  314.4661 C   0  0  0  0  0  0  0  0  0  0  0  0
   86.0014  217.9183  315.0377 C   0  0  0  0  0  0  0  0  0  0  0  0
   87.3104  217.3097  315.5482 C   0  0  0  0  0  0  0  0  0  0  0  0
   87.6810  217.8690  316.9247 C   0  0  0  0  0  0  0  0  0  0  0  0
   88.7718  217.0320  317.5933 C   0  0  0  0  0  0  0  0  0  0  0  0
   89.2579  217.5814  318.9372 C   0  0  0  0  0  0  0  0  0  0  0  0
   90.5526  218.4017  318.9199 C   0  0  0  0  0  0  0  0  0  0  0  0
   90.9959  218.9233  320.2942 C   0  0  0  0  0  0  0  0  0  0  0  0
   92.2295  219.8372  320.1985 C   0  0  1  0  0  0  0  0  0  0  0  0
   91.9212  220.9438  319.3479 O   0  0  0  0  0  0  0  0  0  0  0  0
   92.7079  220.3575  321.5813 C   0  0  1  0  0  0  0  0  0  0  0  0
   91.5474  220.6465  322.3798 O   0  0  0  0  0  0  0  0  0  0  0  0
   93.6521  219.3728  322.3293 C   0  0  2  0  0  0  0  0  0  0  0  0
   95.1245  219.4601  321.8758 C   0  0  0  0  0  0  0  0  0  0  0  0
   95.2423  220.4630  320.8528 O   0  0  0  0  0  0  0  0  0  0  0  0
   95.9848  222.7775  319.6307 O   0  0  0  0  0  0  0  0  0  0  0  0
   95.4842  222.2848  317.0185 O   0  0  0  0  0  0  0  0  0  0  0  0
   96.3793  219.0841  319.4304 O   0  0  0  0  0  0  0  0  0  0  0  0
   99.1038  217.6946  318.2434 O   0  0  0  0  0  0  0  0  0  0  0  0
   97.5161  220.5190  316.3317 O   0  0  0  0  0  0  0  0  0  0  0  0
   97.4883  220.1025  314.9678 C   0  0  0  0  0  0  0  0  0  0  0  0
   97.8454  221.2620  314.0930 C   0  0  2  0  0  0  0  0  0  0  0  0
   96.7769  221.9760  313.3083 C   0  0  0  0  0  0  0  0  0  0  0  0
   97.8084  221.1525  312.5908 C   0  0  0  0  0  0  0  0  0  0  0  0
   93.1641  217.9745  322.3170 N   0  0  0  0  0  0  0  0  0  0  0  0
   93.0409  217.1938  323.4461 C   0  0  0  0  0  0  0  0  0  0  0  0
   92.3890  217.5085  324.4326 O   0  0  0  0  0  0  0  0  0  0  0  0
   93.8417  215.9038  323.3748 C   0  0  0  0  0  0  0  0  0  0  0  0
   92.9517  214.6850  323.6155 C   0  0  0  0  0  0  0  0  0  0  0  0
   91.8973  214.5343  322.5185 C   0  0  0  0  0  0  0  0  0  0  0  0
   90.5570  214.0788  323.0981 C   0  0  0  0  0  0  0  0  0  0  0  0
   89.5095  213.8896  321.9988 C   0  0  0  0  0  0  0  0  0  0  0  0
   88.6765  212.6258  322.2309 C   0  0  0  0  0  0  0  0  0  0  0  0
   88.7815  212.0871  323.6612 C   0  0  0  0  0  0  0  0  0  0  0  0
   87.9132  210.8517  323.9149 C   0  0  0  0  0  0  0  0  0  0  0  0
   87.9085  210.4847  325.4021 C   0  0  0  0  0  0  0  0  0  0  0  0
   87.4486  211.6186  326.3241 C   0  0  0  0  0  0  0  0  0  0  0  0
   85.9927  211.5661  326.8063 C   0  0  0  0  0  0  0  0  0  0  0  0
   85.1070  210.5142  326.1243 C   0  0  0  0  0  0  0  0  0  0  0  0
   83.7021  210.3084  326.6928 C   0  0  0  0  0  0  0  0  0  0  0  0
   82.8812  209.2753  325.9205 C   0  0  0  0  0  0  0  0  0  0  0  0
   81.4935  209.0839  326.5370 C   0  0  0  0  0  0  0  0  0  0  0  0
   80.8906  207.7093  326.2310 C   0  0  0  0  0  0  0  0  0  0  0  0
   80.5188  207.4607  324.7661 C   0  0  0  0  0  0  0  0  0  0  0  0
   80.4997  205.9905  324.3364 C   0  0  0  0  0  0  0  0  0  0  0  0
   81.7121  205.1634  324.7758 C   0  0  0  0  0  0  0  0  0  0  0  0
   82.8934  205.9717  325.3229 C   0  0  0  0  0  0  0  0  0  0  0  0
   84.2180  205.2090  325.4222 C   0  0  0  0  0  0  0  0  0  0  0  0
   84.1185  203.6828  325.3436 C   0  0  0  0  0  0  0  0  0  0  0  0
   85.4192  202.8887  325.5096 C   0  0  0  0  0  0  0  0  0  0  0  0
   86.7149  203.6988  325.4246 C   0  0  0  0  0  0  0  0  0  0  0  0
   87.9689  202.9594  325.8595 C   0  0  0  0  0  0  0  0  0  0  0  0
  1  6  1  0
  1 27  1  1
  1 30  1  0
  3  2  1  1
  2 31  1  0
  3  4  1  0
 30  3  1  0
  5  4  1  0
  4 32  1  1
  6  5  1  0
  5 29  1  6
  6 28  1  1
  8  7  1  0
  9  8  1  0
 10  9  1  0
 11 10  1  0
 12 11  1  0
 13 12  1  0
 14 13  1  0
 15 14  1  0
 16 15  1  0
 17 16  1  0
 18 17  1  0
 19 18  1  0
 20 19  1  0
 21 20  1  0
 21 22  1  6
 23 21  1  0
 23 24  1  1
 25 23  1  0
 25 26  1  6
 25 37  1  0
 26 27  1  0
 32 33  1  0
 34 33  1  1
 34 35  1  0
 34 36  1  0
 35 36  1  0
 37 38  1  0
 38 39  2  0
 38 40  1  0
 40 41  1  0
 41 42  1  0
 42 43  1  0
 43 44  1  0
 44 45  1  0
 45 46  1  0
 46 47  1  0
 47 48  1  0
 48 49  1  0
 49 50  1  0
 50 51  1  0
 51 52  1  0
 52 53  1  0
 53 54  1  0
 54 55  1  0
 55 56  1  0
 56 57  1  0
 57 58  1  0
 58 59  1  0
 59 60  1  0
 60 61  1  0
 61 62  1  0
 62 63  1  0
 63 64  1  0
M  END
$$$$
