
     RDKit          3D

 64 65  0  0  0  0  0  0  0  0999 V2000
   98.1120  218.3412  324.0550 C   0  0  1  0  0  0  0  0  0  0  0  0
   98.9372  217.9126  326.9862 C   0  0  0  0  0  0  0  0  0  0  0  0
   98.0189  217.0372  326.1087 C   0  0  2  0  0  0  0  0  0  0  0  0
   98.7026  215.7960  325.4684 C   0  0  1  0  0  0  0  0  0  0  0  0
   98.8720  215.9812  323.9427 C   0  0  1  0  0  0  0  0  0  0  0  0
   99.2994  217.4215  323.6751 C   0  0  1  0  0  0  0  0  0  0  0  0
   91.0433  217.1294  311.0833 C   0  0  0  0  0  0  0  0  0  0  0  0
   90.8965  215.6499  311.4064 C   0  0  0  0  0  0  0  0  0  0  0  0
   89.4688  215.2415  311.7791 C   0  0  0  0  0  0  0  0  0  0  0  0
   89.3352  213.7563  312.1271 C   0  0  0  0  0  0  0  0  0  0  0  0
   88.0927  213.4928  312.9776 C   0  0  0  0  0  0  0  0  0  0  0  0
   88.3807  212.8409  314.3353 C   0  0  0  0  0  0  0  0  0  0  0  0
   87.9040  213.6305  315.5600 C   0  0  0  0  0  0  0  0  0  0  0  0
   88.6731  214.9348  315.7881 C   0  0  0  0  0  0  0  0  0  0  0  0
   88.9504  215.1629  317.2766 C   0  0  0  0  0  0  0  0  0  0  0  0
   89.3224  216.6223  317.5529 C   0  0  0  0  0  0  0  0  0  0  0  0
   89.8861  216.7984  318.9631 C   0  0  0  0  0  0  0  0  0  0  0  0
   90.4561  218.1903  319.2486 C   0  0  0  0  0  0  0  0  0  0  0  0
   91.4991  218.2930  320.3672 C   0  0  0  0  0  0  0  0  0  0  0  0
   92.6199  219.3086  320.1034 C   0  0  0  0  0  0  0  0  0  0  0  0
   93.9688  218.6251  319.8218 C   0  0  1  0  0  0  0  0  0  0  0  0
   94.3319  218.8604  318.4596 O   0  0  0  0  0  0  0  0  0  0  0  0
   95.1055  219.1170  320.7588 C   0  0  1  0  0  0  0  0  0  0  0  0
   95.1909  220.5483  320.6502 O   0  0  0  0  0  0  0  0  0  0  0  0
   94.9208  218.6936  322.2445 C   0  0  2  0  0  0  0  0  0  0  0  0
   96.0471  219.1895  323.1754 C   0  0  0  0  0  0  0  0  0  0  0  0
   97.2357  218.4205  322.9260 O   0  0  0  0  0  0  0  0  0  0  0  0
   99.7513  217.5827  322.3173 O   0  0  0  0  0  0  0  0  0  0  0  0
   99.8430  215.0906  323.3653 O   0  0  0  0  0  0  0  0  0  0  0  0
   97.3239  217.8139  325.1263 O   0  0  0  0  0  0  0  0  0  0  0  0
   98.2370  218.3332  328.1570 O   0  0  0  0  0  0  0  0  0  0  0  0
   99.9766  215.5832  326.0963 O   0  0  0  0  0  0  0  0  0  0  0  0
   99.9561  214.6383  327.1645 C   0  0  0  0  0  0  0  0  0  0  0  0
   99.9942  213.2549  326.5971 C   0  0  2  0  0  0  0  0  0  0  0  0
   99.8588  212.0604  327.5038 C   0  0  0  0  0  0  0  0  0  0  0  0
  101.1711  212.3433  326.8296 C   0  0  0  0  0  0  0  0  0  0  0  0
   94.6810  217.2415  322.4112 N   0  0  0  0  0  0  0  0  0  0  0  0
   93.5701  216.5857  321.9261 C   0  0  0  0  0  0  0  0  0  0  0  0
   92.4701  217.1038  321.7894 O   0  0  0  0  0  0  0  0  0  0  0  0
   93.8258  215.1199  321.6155 C   0  0  0  0  0  0  0  0  0  0  0  0
   92.9946  214.2090  322.5182 C   0  0  0  0  0  0  0  0  0  0  0  0
   91.9101  213.4746  321.7291 C   0  0  0  0  0  0  0  0  0  0  0  0
   90.9694  212.7097  322.6617 C   0  0  0  0  0  0  0  0  0  0  0  0
   89.8879  211.9657  321.8752 C   0  0  0  0  0  0  0  0  0  0  0  0
   88.6439  212.8358  321.6739 C   0  0  0  0  0  0  0  0  0  0  0  0
   87.4557  212.0653  321.0898 C   0  0  0  0  0  0  0  0  0  0  0  0
   86.2071  212.9281  320.8871 C   0  0  0  0  0  0  0  0  0  0  0  0
   85.9331  213.1490  319.3963 C   0  0  0  0  0  0  0  0  0  0  0  0
   85.9638  214.6192  318.9664 C   0  0  0  0  0  0  0  0  0  0  0  0
   84.7443  215.4718  319.3415 C   0  0  0  0  0  0  0  0  0  0  0  0
   84.1129  216.2667  318.1901 C   0  0  0  0  0  0  0  0  0  0  0  0
   84.8691  217.5007  317.6956 C   0  0  0  0  0  0  0  0  0  0  0  0
   84.3410  218.0431  316.3672 C   0  0  0  0  0  0  0  0  0  0  0  0
   83.6175  219.3790  316.5522 C   0  0  0  0  0  0  0  0  0  0  0  0
   83.6402  220.2481  315.2909 C   0  0  0  0  0  0  0  0  0  0  0  0
   82.6135  219.8805  314.2152 C   0  0  0  0  0  0  0  0  0  0  0  0
   82.2824  220.9958  313.2187 C   0  0  0  0  0  0  0  0  0  0  0  0
   83.4832  221.8040  312.7166 C   0  0  0  0  0  0  0  0  0  0  0  0
   83.2283  223.3020  312.5188 C   0  0  0  0  0  0  0  0  0  0  0  0
   83.3221  223.7961  311.0721 C   0  0  0  0  0  0  0  0  0  0  0  0
   84.3759  224.8736  310.8002 C   0  0  0  0  0  0  0  0  0  0  0  0
   85.3846  224.5969  309.6795 C   0  0  0  0  0  0  0  0  0  0  0  0
   85.8611  225.8180  308.8895 C   0  0  0  0  0  0  0  0  0  0  0  0
   87.1721  226.4225  309.3629 C   0  0  0  0  0  0  0  0  0  0  0  0
  1  6  1  0
  1 27  1  6
  1 30  1  0
  3  2  1  6
  2 31  1  0
  3  4  1  0
 30  3  1  0
  5  4  1  0
  4 32  1  1
  6  5  1  0
  5 29  1  1
  6 28  1  6
  8  7  1  0
  9  8  1  0
 10  9  1  0
 11 10  1  0
 12 11  1  0
 13 12  1  0
 14 13  1  0
 15 14  1  0
 16 15  1  0
 17 16  1  0
 18 17  1  0
 19 18  1  0
 20 19  1  0
 21 20  1  0
 21 22  1  6
 23 21  1  0
 23 24  1  1
 25 23  1  0
 25 26  1  1
 25 37  1  0
 26 27  1  0
 32 33  1  0
 34 33  1  1
 34 35  1  0
 34 36  1  0
 35 36  1  0
 37 38  1  0
 38 39  2  0
 38 40  1  0
 40 41  1  0
 41 42  1  0
 42 43  1  0
 43 44  1  0
 44 45  1  0
 45 46  1  0
 46 47  1  0
 47 48  1  0
 48 49  1  0
 49 50  1  0
 50 51  1  0
 51 52  1  0
 52 53  1  0
 53 54  1  0
 54 55  1  0
 55 56  1  0
 56 57  1  0
 57 58  1  0
 58 59  1  0
 59 60  1  0
 60 61  1  0
 61 62  1  0
 62 63  1  0
 63 64  1  0
M  END
$$$$
