
     RDKit          3D

 81 83  0  0  0  0  0  0  0  0999 V2000
   54.4852  -33.3191    0.3156 N   0  0  0  0  0  4  0  0  0  0  0  0
   55.6096  -32.6459   -0.4354 C   0  0  2  0  0  0  0  0  0  0  0  0
   55.0169  -31.4818   -1.2745 C   0  0  0  0  0  0  0  0  0  0  0  0
   55.4931  -30.3541   -1.1230 O   0  0  0  0  0  0  0  0  0  0  0  0
   56.4524  -33.6696   -1.2136 C   0  0  0  0  0  0  0  0  0  0  0  0
   57.4747  -33.1023   -2.1792 C   0  0  0  0  0  0  0  0  0  0  0  0
   58.3338  -34.0149   -2.8162 C   0  0  0  0  0  0  0  0  0  0  0  0
   59.3196  -33.5799   -3.6948 C   0  0  0  0  0  0  0  0  0  0  0  0
   57.5987  -31.7073   -2.4653 C   0  0  0  0  0  0  0  0  0  0  0  0
   58.6120  -31.2868   -3.3670 C   0  0  0  0  0  0  0  0  0  0  0  0
   59.4646  -32.2257   -3.9600 C   0  0  0  0  0  0  0  0  0  0  0  0
   56.7695  -30.6998   -1.9160 C   0  0  0  0  0  0  0  0  0  0  0  0
   56.9471  -29.3491   -2.2325 C   0  0  0  0  0  0  0  0  0  0  0  0
   57.9494  -28.9627   -3.1064 C   0  0  0  0  0  0  0  0  0  0  0  0
   58.7738  -29.9288   -3.6757 C   0  0  0  0  0  0  0  0  0  0  0  0
   54.0729  -31.8047   -2.2102 N   0  0  0  0  0  0  0  0  0  0  0  0
   53.1177  -32.9078   -1.9904 C   0  0  2  0  0  0  0  0  0  0  0  0
   53.2686  -33.9622   -3.1286 C   0  0  0  0  0  0  0  0  0  0  0  0
   54.2602  -34.0012   -3.8606 O   0  0  0  0  0  0  0  0  0  0  0  0
   51.7074  -32.2889   -1.9014 C   0  0  0  0  0  0  0  0  0  0  0  0
   51.6167  -30.8422   -1.3710 C   0  0  0  0  0  0  0  0  0  0  0  0
   50.1862  -30.3512   -1.1292 C   0  0  0  0  0  0  0  0  0  0  0  0
   49.7721  -29.4591   -2.2141 N   0  0  0  0  0  0  0  0  0  0  0  0
   48.4723  -29.4617   -2.6097 C   0  0  0  0  0  0  0  0  0  0  0  0
   47.4835  -29.1748   -1.8521 N   0  0  0  0  0  0  0  0  0  0  0  0
   48.3655  -29.8475   -3.8981 N   0  0  0  0  0  0  0  0  0  0  0  0
   52.2550  -34.9023   -3.2194 N   0  0  0  0  0  0  0  0  0  0  0  0
   52.2779  -35.9095   -4.2846 C   0  0  2  0  0  0  0  0  0  0  0  0
   51.8415  -35.2149   -5.6017 C   0  0  0  0  0  0  0  0  0  0  0  0
   51.0985  -34.2369   -5.5966 O   0  0  0  0  0  0  0  0  0  0  0  0
   51.3765  -37.0973   -3.9289 C   0  0  0  0  0  0  0  0  0  0  0  0
   51.7344  -37.7439   -2.5797 C   0  0  0  0  0  0  0  0  0  0  0  0
   52.7497  -38.8885   -2.6761 C   0  0  0  0  0  0  0  0  0  0  0  0
   52.9949  -39.4846   -1.3812 N   0  0  0  0  0  0  0  0  0  0  0  0
   52.0857  -39.4620   -0.3767 C   0  0  0  0  0  0  0  0  0  0  0  0
   50.8207  -39.2495   -0.4995 N   0  0  0  0  0  0  0  0  0  0  0  0
   52.6564  -39.7316    0.8087 N   0  0  0  0  0  0  0  0  0  0  0  0
   52.3962  -35.7590   -6.7356 N   0  0  0  0  0  0  0  0  0  0  0  0
   51.8448  -35.7797   -8.1093 C   0  0  2  0  0  0  0  0  0  0  0  0
   50.3237  -36.0477   -8.0220 C   0  0  0  0  0  0  0  0  0  0  0  0
   49.7945  -36.6710   -7.1097 O   0  0  0  0  0  0  0  0  0  0  0  0
   52.5306  -36.6900   -9.1402 C   0  0  0  0  0  0  0  0  0  0  0  0
   54.0021  -36.3640   -9.4447 C   0  0  0  0  0  0  0  0  0  0  0  0
   54.5775  -37.3882  -10.4175 C   0  0  0  0  0  0  0  0  0  0  0  0
   55.3374  -38.4405   -9.7213 N   0  0  0  0  0  0  0  0  0  0  0  0
   56.3475  -38.1086   -8.8726 C   0  0  0  0  0  0  0  0  0  0  0  0
   56.9200  -39.2050   -8.3510 N   0  0  0  0  0  0  0  0  0  0  0  0
   56.7139  -36.9127   -8.5805 N   0  0  0  0  0  0  0  0  0  0  0  0
   47.9269  -37.0850   -9.3168 C   0  0  0  0  0  0  0  0  0  0  0  0
   49.6018  -35.4192   -9.0134 N   0  0  0  0  0  0  0  0  0  0  0  0
   48.7244  -37.7958   -9.9420 O   0  0  0  0  0  0  0  0  0  0  0  0
   48.1570  -35.5584   -9.1488 C   0  0  1  0  0  0  0  0  0  0  0  0
   47.6542  -34.6935  -10.3137 C   0  0  0  0  0  0  0  0  0  0  0  0
   48.9661  -32.5196  -10.5904 C   0  0  0  0  0  0  0  0  0  0  0  0
   48.8893  -31.6088  -11.8102 C   0  0  0  0  0  0  0  0  0  0  0  0
   48.8017  -33.9697  -11.0267 C   0  0  0  0  0  0  0  0  0  0  0  0
   47.7832  -32.0542  -12.6923 N   0  0  0  0  0  4  0  0  0  0  0  0
   46.8191  -37.6047   -8.6847 N   0  0  0  0  0  0  0  0  0  0  0  0
   46.1643  -38.8089   -9.2241 C   0  0  2  0  0  0  0  0  0  0  0  0
   45.0343  -38.3007  -10.1519 C   0  0  0  0  0  0  0  0  0  0  0  0
   45.1691  -37.2436  -10.7637 O   0  0  0  0  0  0  0  0  0  0  0  0
   45.5738  -39.5894   -8.0356 C   0  0  0  0  0  0  0  0  0  0  0  0
   46.3760  -39.5834   -6.7266 C   0  0  0  0  0  0  0  0  0  0  0  0
   45.6528  -40.2601   -5.5581 C   0  0  0  0  0  0  0  0  0  0  0  0
   46.4835  -40.2823   -4.2749 C   0  0  0  0  0  0  0  0  0  0  0  0
   45.7978  -41.0484   -3.2067 N   0  0  0  0  0  4  0  0  0  0  0  0
   43.9092  -39.0922  -10.1903 N   0  0  0  0  0  0  0  0  0  0  0  0
   43.8486  -40.2718  -11.0359 C   0  0  0  0  0  0  0  0  0  0  0  0
   43.3590  -41.5350  -10.3816 C   0  0  0  0  0  0  0  0  0  0  0  0
   42.2809  -41.5392   -9.4886 C   0  0  0  0  0  0  0  0  0  0  0  0
   41.8826  -42.7301   -8.8618 C   0  0  0  0  0  0  0  0  0  0  0  0
   42.5496  -43.9297   -9.1421 C   0  0  0  0  0  0  0  0  0  0  0  0
   42.1347  -45.2048   -8.4790 C   0  0  0  0  0  0  0  0  0  0  0  0
   42.8853  -46.3353   -8.6276 N   0  0  0  0  0  0  0  0  0  0  0  0
   41.0389  -45.2182   -7.7945 N   0  0  0  0  0  0  0  0  0  0  0  0
   43.6178  -43.9292  -10.0399 C   0  0  0  0  0  0  0  0  0  0  0  0
   44.0264  -42.7417  -10.6430 C   0  0  0  0  0  0  0  0  0  0  0  0
   46.6086  -29.4337   -2.2991 H   0  0  0  0  0  0  0  0  0  0  0  0
   50.5900  -39.6131   -1.4302 H   0  0  0  0  0  0  0  0  0  0  0  0
   57.7043  -36.9333   -8.3408 H   0  0  0  0  0  0  0  0  0  0  0  0
   40.5057  -44.3545   -7.9313 H   0  0  0  0  0  0  0  0  0  0  0  0
  2  1  1  6
  3  2  1  0
  2  5  1  0
  3  4  2  0
 16  3  1  0
  5  6  1  0
  6  7  2  0
  6  9  1  0
  7  8  1  0
  8 11  2  0
  9 10  2  0
  9 12  1  0
 10 11  1  0
 10 15  1  0
 12 13  2  0
 13 14  1  0
 15 14  2  0
 17 16  1  0
 18 17  1  0
 17 20  1  6
 18 19  2  0
 27 18  1  0
 20 21  1  0
 21 22  1  0
 22 23  1  0
 23 24  1  0
 24 25  2  0
 24 26  1  0
 28 27  1  0
 29 28  1  0
 28 31  1  1
 29 30  2  0
 38 29  1  0
 31 32  1  0
 32 33  1  0
 33 34  1  0
 34 35  1  0
 35 36  2  0
 35 37  1  0
 39 38  1  0
 40 39  1  0
 39 42  1  6
 40 41  2  0
 50 40  1  0
 42 43  1  0
 43 44  1  0
 44 45  1  0
 45 46  1  0
 46 47  1  0
 46 48  2  0
 49 51  2  0
 52 49  1  0
 49 58  1  0
 52 50  1  0
 52 53  1  6
 56 53  1  0
 54 55  1  0
 54 56  1  0
 55 57  1  0
 58 59  1  0
 59 60  1  0
 59 62  1  1
 60 61  2  0
 60 67  1  0
 62 63  1  0
 63 64  1  0
 64 65  1  0
 65 66  1  0
 67 68  1  0
 68 69  1  0
 69 70  2  0
 69 77  1  0
 70 71  1  0
 71 72  2  0
 72 73  1  0
 72 76  1  0
 73 74  1  0
 73 75  2  0
 76 77  2  0
 25 78  1  0
 36 79  1  0
 48 80  1  0
 75 81  1  0
M  CHG  3   1   1  57   1  66   1
M  END
$$$$
