
     RDKit          3D

 81 83  0  0  0  0  0  0  0  0999 V2000
   56.7036  -29.6391    0.6407 N   0  0  0  0  0  4  0  0  0  0  0  0
   56.8971  -30.8674   -0.2169 C   0  0  2  0  0  0  0  0  0  0  0  0
   56.0213  -30.7245   -1.4909 C   0  0  0  0  0  0  0  0  0  0  0  0
   55.7090  -29.5891   -1.8580 O   0  0  0  0  0  0  0  0  0  0  0  0
   56.6885  -32.1549    0.5971 C   0  0  0  0  0  0  0  0  0  0  0  0
   55.2896  -32.3921    1.1316 C   0  0  0  0  0  0  0  0  0  0  0  0
   55.0619  -33.5918    1.8284 C   0  0  0  0  0  0  0  0  0  0  0  0
   53.8025  -33.9042    2.3280 C   0  0  0  0  0  0  0  0  0  0  0  0
   54.2141  -31.4658    0.9625 C   0  0  0  0  0  0  0  0  0  0  0  0
   52.9371  -31.8059    1.4826 C   0  0  0  0  0  0  0  0  0  0  0  0
   52.7460  -33.0232    2.1472 C   0  0  0  0  0  0  0  0  0  0  0  0
   54.3303  -30.2128    0.3138 C   0  0  0  0  0  0  0  0  0  0  0  0
   53.2359  -29.3531    0.1756 C   0  0  0  0  0  0  0  0  0  0  0  0
   51.9979  -29.7118    0.6819 C   0  0  0  0  0  0  0  0  0  0  0  0
   51.8516  -30.9305    1.3381 C   0  0  0  0  0  0  0  0  0  0  0  0
   55.7416  -31.8681   -2.1871 N   0  0  0  0  0  0  0  0  0  0  0  0
   55.0180  -31.8288   -3.4726 C   0  0  2  0  0  0  0  0  0  0  0  0
   54.6315  -33.2780   -3.8973 C   0  0  0  0  0  0  0  0  0  0  0  0
   55.3669  -34.2440   -3.6814 O   0  0  0  0  0  0  0  0  0  0  0  0
   55.9218  -31.1042   -4.4913 C   0  0  0  0  0  0  0  0  0  0  0  0
   57.2568  -31.7923   -4.8473 C   0  0  0  0  0  0  0  0  0  0  0  0
   58.0848  -31.0489   -5.8997 C   0  0  0  0  0  0  0  0  0  0  0  0
   59.2146  -31.8773   -6.3257 N   0  0  0  0  0  0  0  0  0  0  0  0
   60.2015  -31.3135   -7.0702 C   0  0  0  0  0  0  0  0  0  0  0  0
   60.1917  -30.1068   -7.4921 N   0  0  0  0  0  0  0  0  0  0  0  0
   61.1718  -32.2120   -7.3369 N   0  0  0  0  0  0  0  0  0  0  0  0
   53.3762  -33.4267   -4.4644 N   0  0  0  0  0  0  0  0  0  0  0  0
   52.8217  -34.7659   -4.6851 C   0  0  2  0  0  0  0  0  0  0  0  0
   53.4012  -35.3036   -6.0203 C   0  0  0  0  0  0  0  0  0  0  0  0
   54.3580  -34.7634   -6.5692 O   0  0  0  0  0  0  0  0  0  0  0  0
   51.2893  -34.7252   -4.6924 C   0  0  0  0  0  0  0  0  0  0  0  0
   50.6902  -34.3066   -3.3388 C   0  0  0  0  0  0  0  0  0  0  0  0
   50.6661  -35.4206   -2.2859 C   0  0  0  0  0  0  0  0  0  0  0  0
   50.1739  -34.9336   -1.0160 N   0  0  0  0  0  0  0  0  0  0  0  0
   50.9447  -34.2370   -0.1461 C   0  0  0  0  0  0  0  0  0  0  0  0
   52.1460  -33.8213   -0.3577 N   0  0  0  0  0  0  0  0  0  0  0  0
   50.2875  -33.9807    0.9966 N   0  0  0  0  0  0  0  0  0  0  0  0
   52.7848  -36.4414   -6.4838 N   0  0  0  0  0  0  0  0  0  0  0  0
   52.8790  -37.8195   -5.9511 C   0  0  2  0  0  0  0  0  0  0  0  0
   52.0004  -38.7438   -6.8271 C   0  0  0  0  0  0  0  0  0  0  0  0
   51.8374  -39.9374   -6.6047 O   0  0  0  0  0  0  0  0  0  0  0  0
   52.6124  -38.0250   -4.4518 C   0  0  0  0  0  0  0  0  0  0  0  0
   53.0879  -39.3650   -3.8664 C   0  0  0  0  0  0  0  0  0  0  0  0
   54.3900  -39.7976   -4.5324 C   0  0  0  0  0  0  0  0  0  0  0  0
   54.3127  -41.1758   -5.0464 N   0  0  0  0  0  0  0  0  0  0  0  0
   54.4748  -42.2314   -4.2036 C   0  0  0  0  0  0  0  0  0  0  0  0
   54.5712  -41.8214   -2.9291 N   0  0  0  0  0  0  0  0  0  0  0  0
   54.5450  -43.4642   -4.5569 N   0  0  0  0  0  0  0  0  0  0  0  0
   49.4569  -37.2020   -9.0180 C   0  0  0  0  0  0  0  0  0  0  0  0
   51.3239  -38.0707   -7.8212 N   0  0  0  0  0  0  0  0  0  0  0  0
   50.1424  -37.3704  -10.0348 O   0  0  0  0  0  0  0  0  0  0  0  0
   50.0490  -37.4007   -7.5961 C   0  0  1  0  0  0  0  0  0  0  0  0
   50.2703  -36.1078   -6.7980 C   0  0  0  0  0  0  0  0  0  0  0  0
   50.3938  -33.5603   -6.9344 C   0  0  0  0  0  0  0  0  0  0  0  0
   50.4394  -32.3960   -7.9170 C   0  0  0  0  0  0  0  0  0  0  0  0
   50.2792  -34.8706   -7.7026 C   0  0  0  0  0  0  0  0  0  0  0  0
   50.4504  -31.1158   -7.1683 N   0  0  0  0  0  4  0  0  0  0  0  0
   48.1182  -36.8843   -9.0788 N   0  0  0  0  0  0  0  0  0  0  0  0
   47.1123  -37.9577   -9.1548 C   0  0  2  0  0  0  0  0  0  0  0  0
   45.8203  -37.2944   -9.6902 C   0  0  0  0  0  0  0  0  0  0  0  0
   45.4252  -36.2366   -9.2055 O   0  0  0  0  0  0  0  0  0  0  0  0
   46.8914  -38.4902   -7.7271 C   0  0  0  0  0  0  0  0  0  0  0  0
   47.5019  -39.8574   -7.3879 C   0  0  0  0  0  0  0  0  0  0  0  0
   47.0589  -40.9805   -8.3306 C   0  0  0  0  0  0  0  0  0  0  0  0
   48.2096  -41.5528   -9.1586 C   0  0  0  0  0  0  0  0  0  0  0  0
   48.5090  -42.9504   -8.7645 N   0  0  0  0  0  4  0  0  0  0  0  0
   45.1741  -37.9921  -10.6849 N   0  0  0  0  0  0  0  0  0  0  0  0
   45.5938  -37.8863  -12.0715 C   0  0  0  0  0  0  0  0  0  0  0  0
   46.0767  -36.5336  -12.5191 C   0  0  0  0  0  0  0  0  0  0  0  0
   45.1947  -35.4763  -12.7723 C   0  0  0  0  0  0  0  0  0  0  0  0
   45.6788  -34.2425  -13.2337 C   0  0  0  0  0  0  0  0  0  0  0  0
   47.0537  -34.0533  -13.4247 C   0  0  0  0  0  0  0  0  0  0  0  0
   47.5811  -32.7430  -13.9173 C   0  0  0  0  0  0  0  0  0  0  0  0
   48.9217  -32.5653  -14.1037 N   0  0  0  0  0  0  0  0  0  0  0  0
   46.7459  -31.7800  -14.1288 N   0  0  0  0  0  0  0  0  0  0  0  0
   47.9353  -35.1027  -13.1629 C   0  0  0  0  0  0  0  0  0  0  0  0
   47.4503  -36.3340  -12.7274 C   0  0  0  0  0  0  0  0  0  0  0  0
   59.3271  -29.6453   -7.2241 H   0  0  0  0  0  0  0  0  0  0  0  0
   52.6813  -34.6747   -0.5495 H   0  0  0  0  0  0  0  0  0  0  0  0
   54.7843  -43.4980   -5.5471 H   0  0  0  0  0  0  0  0  0  0  0  0
   46.7598  -31.1019  -13.3614 H   0  0  0  0  0  0  0  0  0  0  0  0
  2  1  1  1
  3  2  1  0
  2  5  1  0
  3  4  2  0
 16  3  1  0
  5  6  1  0
  6  7  2  0
  6  9  1  0
  7  8  1  0
  8 11  2  0
  9 10  2  0
  9 12  1  0
 10 11  1  0
 10 15  1  0
 12 13  2  0
 13 14  1  0
 15 14  2  0
 17 16  1  0
 18 17  1  0
 17 20  1  6
 18 19  2  0
 27 18  1  0
 20 21  1  0
 21 22  1  0
 22 23  1  0
 23 24  1  0
 24 25  2  0
 24 26  1  0
 28 27  1  0
 29 28  1  0
 28 31  1  6
 29 30  2  0
 38 29  1  0
 31 32  1  0
 32 33  1  0
 33 34  1  0
 34 35  1  0
 35 36  2  0
 35 37  1  0
 39 38  1  0
 40 39  1  0
 39 42  1  1
 40 41  2  0
 50 40  1  0
 42 43  1  0
 43 44  1  0
 44 45  1  0
 45 46  1  0
 46 47  1  0
 46 48  2  0
 49 51  2  0
 52 49  1  0
 49 58  1  0
 52 50  1  0
 52 53  1  6
 56 53  1  0
 54 55  1  0
 54 56  1  0
 55 57  1  0
 58 59  1  0
 59 60  1  0
 59 62  1  1
 60 61  2  0
 60 67  1  0
 62 63  1  0
 63 64  1  0
 64 65  1  0
 65 66  1  0
 67 68  1  0
 68 69  1  0
 69 70  2  0
 69 77  1  0
 70 71  1  0
 71 72  2  0
 72 73  1  0
 72 76  1  0
 73 74  1  0
 73 75  2  0
 76 77  2  0
 25 78  1  0
 36 79  1  0
 48 80  1  0
 75 81  1  0
M  CHG  3   1   1  57   1  66   1
M  END
$$$$
