
     RDKit          3D

 81 83  0  0  0  0  0  0  0  0999 V2000
   53.3648  -34.6159   -3.7123 N   0  0  0  0  0  4  0  0  0  0  0  0
   53.3928  -33.7918   -4.9778 C   0  0  2  0  0  0  0  0  0  0  0  0
   53.8171  -34.7090   -6.1565 C   0  0  0  0  0  0  0  0  0  0  0  0
   54.0350  -34.1856   -7.2518 O   0  0  0  0  0  0  0  0  0  0  0  0
   54.2256  -32.5127   -4.7925 C   0  0  0  0  0  0  0  0  0  0  0  0
   55.6936  -32.6083   -5.1595 C   0  0  0  0  0  0  0  0  0  0  0  0
   56.4969  -33.4615   -4.3826 C   0  0  0  0  0  0  0  0  0  0  0  0
   57.8591  -33.5881   -4.6305 C   0  0  0  0  0  0  0  0  0  0  0  0
   56.2839  -31.8840   -6.2413 C   0  0  0  0  0  0  0  0  0  0  0  0
   57.6769  -32.0303   -6.4762 C   0  0  0  0  0  0  0  0  0  0  0  0
   58.4465  -32.8701   -5.6622 C   0  0  0  0  0  0  0  0  0  0  0  0
   55.5723  -31.0261   -7.1141 C   0  0  0  0  0  0  0  0  0  0  0  0
   56.2112  -30.3399   -8.1519 C   0  0  0  0  0  0  0  0  0  0  0  0
   57.5727  -30.4907   -8.3542 C   0  0  0  0  0  0  0  0  0  0  0  0
   58.3006  -31.3375   -7.5234 C   0  0  0  0  0  0  0  0  0  0  0  0
   54.0266  -36.0309   -5.8741 N   0  0  0  0  0  0  0  0  0  0  0  0
   54.5700  -36.9571   -6.8862 C   0  0  2  0  0  0  0  0  0  0  0  0
   53.4187  -37.4461   -7.8165 C   0  0  0  0  0  0  0  0  0  0  0  0
   53.6371  -37.9882   -8.9023 O   0  0  0  0  0  0  0  0  0  0  0  0
   55.2861  -38.0976   -6.1337 C   0  0  0  0  0  0  0  0  0  0  0  0
   56.5662  -38.6626   -6.7854 C   0  0  0  0  0  0  0  0  0  0  0  0
   57.2162  -39.8072   -6.0024 C   0  0  0  0  0  0  0  0  0  0  0  0
   58.1934  -39.2727   -5.0517 N   0  0  0  0  0  0  0  0  0  0  0  0
   59.4761  -39.0873   -5.4592 C   0  0  0  0  0  0  0  0  0  0  0  0
   59.9051  -39.3346   -6.6378 N   0  0  0  0  0  0  0  0  0  0  0  0
   60.2424  -38.6460   -4.4404 N   0  0  0  0  0  0  0  0  0  0  0  0
   52.1352  -37.3040   -7.3148 N   0  0  0  0  0  0  0  0  0  0  0  0
   51.8252  -36.2159   -6.3823 C   0  0  2  0  0  0  0  0  0  0  0  0
   51.3227  -35.0074   -7.2159 C   0  0  0  0  0  0  0  0  0  0  0  0
   50.8699  -34.0000   -6.6784 O   0  0  0  0  0  0  0  0  0  0  0  0
   53.0503  -35.8641   -5.5308 C   0  0  0  0  0  0  0  0  0  0  0  0
   53.1109  -36.6467   -4.2079 C   0  0  0  0  0  0  0  0  0  0  0  0
   53.5153  -35.8044   -2.9925 C   0  0  0  0  0  0  0  0  0  0  0  0
   53.6271  -36.6184   -1.8021 N   0  0  0  0  0  0  0  0  0  0  0  0
   53.9127  -37.9425   -1.8401 C   0  0  0  0  0  0  0  0  0  0  0  0
   53.0649  -38.8998   -1.9993 N   0  0  0  0  0  0  0  0  0  0  0  0
   55.2323  -38.1642   -1.7265 N   0  0  0  0  0  0  0  0  0  0  0  0
   51.4794  -35.1558   -8.5734 N   0  0  0  0  0  0  0  0  0  0  0  0
   50.9710  -34.2854   -9.6577 C   0  0  2  0  0  0  0  0  0  0  0  0
   49.7922  -35.0073  -10.3524 C   0  0  0  0  0  0  0  0  0  0  0  0
   48.9166  -34.4273  -10.9831 O   0  0  0  0  0  0  0  0  0  0  0  0
   51.9887  -33.7398  -10.6716 C   0  0  0  0  0  0  0  0  0  0  0  0
   51.6900  -34.0461  -12.1485 C   0  0  0  0  0  0  0  0  0  0  0  0
   52.6074  -33.2280  -13.0515 C   0  0  0  0  0  0  0  0  0  0  0  0
   52.4723  -33.6143  -14.4664 N   0  0  0  0  0  0  0  0  0  0  0  0
   52.6996  -34.8995  -14.8505 C   0  0  0  0  0  0  0  0  0  0  0  0
   51.6682  -35.6921  -14.5191 N   0  0  0  0  0  0  0  0  0  0  0  0
   53.7584  -35.3261  -15.4391 N   0  0  0  0  0  0  0  0  0  0  0  0
   47.8242  -37.1879   -9.4032 C   0  0  0  0  0  0  0  0  0  0  0  0
   49.8818  -36.3811  -10.2906 N   0  0  0  0  0  0  0  0  0  0  0  0
   48.1420  -37.6724   -8.3093 O   0  0  0  0  0  0  0  0  0  0  0  0
   48.7715  -37.2621  -10.6314 C   0  0  1  0  0  0  0  0  0  0  0  0
   49.2988  -38.6659  -10.9614 C   0  0  0  0  0  0  0  0  0  0  0  0
   50.9227  -39.9654  -12.4439 C   0  0  0  0  0  0  0  0  0  0  0  0
   52.0512  -39.7251  -13.4399 C   0  0  0  0  0  0  0  0  0  0  0  0
   50.1360  -38.6763  -12.2451 C   0  0  0  0  0  0  0  0  0  0  0  0
   52.8425  -40.9690  -13.6018 N   0  0  0  0  0  4  0  0  0  0  0  0
   46.6421  -36.5061   -9.5889 N   0  0  0  0  0  0  0  0  0  0  0  0
   45.6245  -36.4984   -8.5239 C   0  0  2  0  0  0  0  0  0  0  0  0
   45.1001  -37.9513   -8.4243 C   0  0  0  0  0  0  0  0  0  0  0  0
   44.9608  -38.6263   -9.4415 O   0  0  0  0  0  0  0  0  0  0  0  0
   44.4960  -35.5486   -8.9655 C   0  0  0  0  0  0  0  0  0  0  0  0
   44.4012  -34.1939   -8.2495 C   0  0  0  0  0  0  0  0  0  0  0  0
   44.9890  -34.2025   -6.8350 C   0  0  0  0  0  0  0  0  0  0  0  0
   44.8414  -32.8595   -6.1197 C   0  0  0  0  0  0  0  0  0  0  0  0
   45.4679  -32.8971   -4.7764 N   0  0  0  0  0  4  0  0  0  0  0  0
   44.7874  -38.3740   -7.1525 N   0  0  0  0  0  0  0  0  0  0  0  0
   44.3035  -39.7213   -6.9061 C   0  0  0  0  0  0  0  0  0  0  0  0
   43.8451  -40.0175   -5.5041 C   0  0  0  0  0  0  0  0  0  0  0  0
   42.9749  -39.1670   -4.8119 C   0  0  0  0  0  0  0  0  0  0  0  0
   42.6065  -39.4524   -3.4881 C   0  0  0  0  0  0  0  0  0  0  0  0
   43.0917  -40.6045   -2.8557 C   0  0  0  0  0  0  0  0  0  0  0  0
   42.7068  -40.9182   -1.4446 C   0  0  0  0  0  0  0  0  0  0  0  0
   43.2371  -42.0045   -0.8104 N   0  0  0  0  0  0  0  0  0  0  0  0
   41.8412  -40.1605   -0.8563 N   0  0  0  0  0  0  0  0  0  0  0  0
   43.9508  -41.4588   -3.5478 C   0  0  0  0  0  0  0  0  0  0  0  0
   44.3339  -41.1612   -4.8537 C   0  0  0  0  0  0  0  0  0  0  0  0
   59.1267  -39.4867   -7.2729 H   0  0  0  0  0  0  0  0  0  0  0  0
   52.2268  -38.5842   -1.4996 H   0  0  0  0  0  0  0  0  0  0  0  0
   54.2925  -34.5184  -15.7574 H   0  0  0  0  0  0  0  0  0  0  0  0
   41.3357  -39.5807   -1.5324 H   0  0  0  0  0  0  0  0  0  0  0  0
  2  1  1  1
  3  2  1  0
  2  5  1  0
  3  4  2  0
 16  3  1  0
  5  6  1  0
  6  7  2  0
  6  9  1  0
  7  8  1  0
  8 11  2  0
  9 10  2  0
  9 12  1  0
 10 11  1  0
 10 15  1  0
 12 13  2  0
 13 14  1  0
 15 14  2  0
 17 16  1  0
 18 17  1  0
 17 20  1  1
 18 19  2  0
 27 18  1  0
 20 21  1  0
 21 22  1  0
 22 23  1  0
 23 24  1  0
 24 25  2  0
 24 26  1  0
 28 27  1  0
 29 28  1  0
 28 31  1  6
 29 30  2  0
 38 29  1  0
 31 32  1  0
 32 33  1  0
 33 34  1  0
 34 35  1  0
 35 36  2  0
 35 37  1  0
 39 38  1  0
 40 39  1  0
 39 42  1  6
 40 41  2  0
 50 40  1  0
 42 43  1  0
 43 44  1  0
 44 45  1  0
 45 46  1  0
 46 47  1  0
 46 48  2  0
 49 51  2  0
 52 49  1  0
 49 58  1  0
 52 50  1  0
 52 53  1  1
 56 53  1  0
 54 55  1  0
 54 56  1  0
 55 57  1  0
 58 59  1  0
 59 60  1  0
 59 62  1  6
 60 61  2  0
 60 67  1  0
 62 63  1  0
 63 64  1  0
 64 65  1  0
 65 66  1  0
 67 68  1  0
 68 69  1  0
 69 70  2  0
 69 77  1  0
 70 71  1  0
 71 72  2  0
 72 73  1  0
 72 76  1  0
 73 74  1  0
 73 75  2  0
 76 77  2  0
 25 78  1  0
 36 79  1  0
 48 80  1  0
 75 81  1  0
M  CHG  3   1   1  57   1  66   1
M  END
$$$$
