
     RDKit          3D

 81 83  0  0  0  0  0  0  0  0999 V2000
   55.4766  -37.3669   -1.3135 N   0  0  0  0  0  4  0  0  0  0  0  0
   55.4787  -35.8945   -0.9767 C   0  0  2  0  0  0  0  0  0  0  0  0
   54.9897  -35.1019   -2.2190 C   0  0  0  0  0  0  0  0  0  0  0  0
   53.9004  -34.5273   -2.1509 O   0  0  0  0  0  0  0  0  0  0  0  0
   56.8329  -35.4569   -0.3949 C   0  0  0  0  0  0  0  0  0  0  0  0
   56.8863  -34.0679    0.2106 C   0  0  0  0  0  0  0  0  0  0  0  0
   57.6916  -33.1144   -0.4366 C   0  0  0  0  0  0  0  0  0  0  0  0
   57.8216  -31.8244    0.0655 C   0  0  0  0  0  0  0  0  0  0  0  0
   56.1657  -33.6931    1.3869 C   0  0  0  0  0  0  0  0  0  0  0  0
   56.3131  -32.3696    1.8804 C   0  0  0  0  0  0  0  0  0  0  0  0
   57.1462  -31.4580    1.2208 C   0  0  0  0  0  0  0  0  0  0  0  0
   55.2968  -34.5520    2.1021 C   0  0  0  0  0  0  0  0  0  0  0  0
   54.6245  -34.1251    3.2518 C   0  0  0  0  0  0  0  0  0  0  0  0
   54.7929  -32.8327    3.7196 C   0  0  0  0  0  0  0  0  0  0  0  0
   55.6288  -31.9574    3.0325 C   0  0  0  0  0  0  0  0  0  0  0  0
   55.8528  -35.0035   -3.2756 N   0  0  0  0  0  0  0  0  0  0  0  0
   55.4708  -34.3061   -4.5187 C   0  0  2  0  0  0  0  0  0  0  0  0
   54.2553  -35.0321   -5.1709 C   0  0  0  0  0  0  0  0  0  0  0  0
   54.2902  -36.2262   -5.4767 O   0  0  0  0  0  0  0  0  0  0  0  0
   56.7196  -34.2532   -5.4229 C   0  0  0  0  0  0  0  0  0  0  0  0
   56.5422  -33.6090   -6.8143 C   0  0  0  0  0  0  0  0  0  0  0  0
   57.7608  -32.8180   -7.2994 C   0  0  0  0  0  0  0  0  0  0  0  0
   58.9140  -33.7095   -7.4392 N   0  0  0  0  0  0  0  0  0  0  0  0
   58.7932  -34.8291   -8.1995 C   0  0  0  0  0  0  0  0  0  0  0  0
   59.7226  -35.6887   -8.3767 N   0  0  0  0  0  0  0  0  0  0  0  0
   57.5737  -34.8879   -8.7734 N   0  0  0  0  0  0  0  0  0  0  0  0
   53.1055  -34.2731   -5.3164 N   0  0  0  0  0  0  0  0  0  0  0  0
   51.9887  -34.7751   -6.1230 C   0  0  2  0  0  0  0  0  0  0  0  0
   52.4772  -34.8833   -7.5918 C   0  0  0  0  0  0  0  0  0  0  0  0
   53.5356  -34.3773   -7.9557 O   0  0  0  0  0  0  0  0  0  0  0  0
   50.7648  -33.8625   -5.9844 C   0  0  0  0  0  0  0  0  0  0  0  0
   50.3876  -33.5767   -4.5207 C   0  0  0  0  0  0  0  0  0  0  0  0
   49.1553  -32.6813   -4.3482 C   0  0  0  0  0  0  0  0  0  0  0  0
   48.2329  -33.2363   -3.3822 N   0  0  0  0  0  0  0  0  0  0  0  0
   48.6400  -33.8790   -2.2608 C   0  0  0  0  0  0  0  0  0  0  0  0
   47.9553  -34.7344   -1.5825 N   0  0  0  0  0  0  0  0  0  0  0  0
   49.8994  -33.5467   -1.9338 N   0  0  0  0  0  0  0  0  0  0  0  0
   51.6540  -35.6244   -8.4057 N   0  0  0  0  0  0  0  0  0  0  0  0
   51.7225  -35.7910   -9.8751 C   0  0  2  0  0  0  0  0  0  0  0  0
   50.4148  -36.4659  -10.3525 C   0  0  0  0  0  0  0  0  0  0  0  0
   50.1941  -36.7721  -11.5180 O   0  0  0  0  0  0  0  0  0  0  0  0
   52.9686  -36.4750  -10.4588 C   0  0  0  0  0  0  0  0  0  0  0  0
   53.6352  -35.7523  -11.6409 C   0  0  0  0  0  0  0  0  0  0  0  0
   52.6421  -35.5919  -12.7873 C   0  0  0  0  0  0  0  0  0  0  0  0
   51.9324  -34.3028  -12.7230 N   0  0  0  0  0  0  0  0  0  0  0  0
   52.4408  -33.2087  -13.3518 C   0  0  0  0  0  0  0  0  0  0  0  0
   52.1909  -33.2496  -14.6700 N   0  0  0  0  0  0  0  0  0  0  0  0
   53.0909  -32.2572  -12.7846 N   0  0  0  0  0  0  0  0  0  0  0  0
   47.4053  -37.7763   -9.0898 C   0  0  0  0  0  0  0  0  0  0  0  0
   49.5632  -36.7951   -9.3204 N   0  0  0  0  0  0  0  0  0  0  0  0
   46.6568  -38.4436   -8.3641 O   0  0  0  0  0  0  0  0  0  0  0  0
   48.9195  -38.0985   -9.2115 C   0  0  1  0  0  0  0  0  0  0  0  0
   49.5144  -38.8796   -8.0309 C   0  0  0  0  0  0  0  0  0  0  0  0
   49.3176  -39.3698   -5.5321 C   0  0  0  0  0  0  0  0  0  0  0  0
   48.4468  -39.1142   -4.3074 C   0  0  0  0  0  0  0  0  0  0  0  0
   48.7208  -38.6571   -6.7387 C   0  0  0  0  0  0  0  0  0  0  0  0
   49.0893  -39.7080   -3.1098 N   0  0  0  0  0  4  0  0  0  0  0  0
   46.9608  -36.6764   -9.7896 N   0  0  0  0  0  0  0  0  0  0  0  0
   45.5640  -36.2313   -9.6465 C   0  0  2  0  0  0  0  0  0  0  0  0
   44.8875  -36.5032  -11.0119 C   0  0  0  0  0  0  0  0  0  0  0  0
   44.9744  -35.6767  -11.9171 O   0  0  0  0  0  0  0  0  0  0  0  0
   45.5853  -34.7209   -9.3484 C   0  0  0  0  0  0  0  0  0  0  0  0
   45.8519  -34.2977   -7.8969 C   0  0  0  0  0  0  0  0  0  0  0  0
   44.8418  -34.8649   -6.8947 C   0  0  0  0  0  0  0  0  0  0  0  0
   45.0284  -34.3115   -5.4819 C   0  0  0  0  0  0  0  0  0  0  0  0
   45.6573  -32.9692   -5.5117 N   0  0  0  0  0  4  0  0  0  0  0  0
   44.1855  -37.6841  -11.0916 N   0  0  0  0  0  0  0  0  0  0  0  0
   42.8147  -37.7768  -10.6201 C   0  0  0  0  0  0  0  0  0  0  0  0
   42.5177  -38.8898   -9.6524 C   0  0  0  0  0  0  0  0  0  0  0  0
   41.7481  -40.0021  -10.0132 C   0  0  0  0  0  0  0  0  0  0  0  0
   41.4528  -40.9978   -9.0693 C   0  0  0  0  0  0  0  0  0  0  0  0
   41.9450  -40.8956   -7.7616 C   0  0  0  0  0  0  0  0  0  0  0  0
   41.6357  -41.9501   -6.7467 C   0  0  0  0  0  0  0  0  0  0  0  0
   40.9164  -43.0558   -7.0983 N   0  0  0  0  0  0  0  0  0  0  0  0
   42.0345  -41.7741   -5.5304 N   0  0  0  0  0  0  0  0  0  0  0  0
   42.7209  -39.7926   -7.4031 C   0  0  0  0  0  0  0  0  0  0  0  0
   42.9931  -38.7938   -8.3353 C   0  0  0  0  0  0  0  0  0  0  0  0
   60.6338  -35.2480   -8.2875 H   0  0  0  0  0  0  0  0  0  0  0  0
   47.0853  -34.8442   -2.1144 H   0  0  0  0  0  0  0  0  0  0  0  0
   52.4396  -31.7279  -12.2063 H   0  0  0  0  0  0  0  0  0  0  0  0
   42.4135  -40.8320   -5.3970 H   0  0  0  0  0  0  0  0  0  0  0  0
  2  1  1  6
  3  2  1  0
  2  5  1  0
  3  4  2  0
 16  3  1  0
  5  6  1  0
  6  7  2  0
  6  9  1  0
  7  8  1  0
  8 11  2  0
  9 10  2  0
  9 12  1  0
 10 11  1  0
 10 15  1  0
 12 13  2  0
 13 14  1  0
 15 14  2  0
 17 16  1  0
 18 17  1  0
 17 20  1  6
 18 19  2  0
 27 18  1  0
 20 21  1  0
 21 22  1  0
 22 23  1  0
 23 24  1  0
 24 25  2  0
 24 26  1  0
 28 27  1  0
 29 28  1  0
 28 31  1  6
 29 30  2  0
 38 29  1  0
 31 32  1  0
 32 33  1  0
 33 34  1  0
 34 35  1  0
 35 36  2  0
 35 37  1  0
 39 38  1  0
 40 39  1  0
 39 42  1  1
 40 41  2  0
 50 40  1  0
 42 43  1  0
 43 44  1  0
 44 45  1  0
 45 46  1  0
 46 47  1  0
 46 48  2  0
 49 51  2  0
 52 49  1  0
 49 58  1  0
 52 50  1  0
 52 53  1  1
 56 53  1  0
 54 55  1  0
 54 56  1  0
 55 57  1  0
 58 59  1  0
 59 60  1  0
 59 62  1  6
 60 61  2  0
 60 67  1  0
 62 63  1  0
 63 64  1  0
 64 65  1  0
 65 66  1  0
 67 68  1  0
 68 69  1  0
 69 70  2  0
 69 77  1  0
 70 71  1  0
 71 72  2  0
 72 73  1  0
 72 76  1  0
 73 74  1  0
 73 75  2  0
 76 77  2  0
 25 78  1  0
 36 79  1  0
 48 80  1  0
 75 81  1  0
M  CHG  3   1   1  57   1  66   1
M  END
$$$$
