
     RDKit          3D

 81 83  0  0  0  0  0  0  0  0999 V2000
   55.2729  -35.3365   -6.0901 N   0  0  0  0  0  4  0  0  0  0  0  0
   56.4075  -35.5339   -5.1129 C   0  0  2  0  0  0  0  0  0  0  0  0
   55.8171  -35.6176   -3.6794 C   0  0  0  0  0  0  0  0  0  0  0  0
   55.5735  -36.7338   -3.2147 O   0  0  0  0  0  0  0  0  0  0  0  0
   57.5122  -34.4849   -5.3209 C   0  0  0  0  0  0  0  0  0  0  0  0
   58.0675  -34.3642   -6.7266 C   0  0  0  0  0  0  0  0  0  0  0  0
   59.0818  -35.2645   -7.0972 C   0  0  0  0  0  0  0  0  0  0  0  0
   59.6681  -35.2071   -8.3566 C   0  0  0  0  0  0  0  0  0  0  0  0
   57.6118  -33.3948   -7.6731 C   0  0  0  0  0  0  0  0  0  0  0  0
   58.2247  -33.3560   -8.9536 C   0  0  0  0  0  0  0  0  0  0  0  0
   59.2503  -34.2535   -9.2738 C   0  0  0  0  0  0  0  0  0  0  0  0
   56.5744  -32.4628   -7.4292 C   0  0  0  0  0  0  0  0  0  0  0  0
   56.1789  -31.5341   -8.3973 C   0  0  0  0  0  0  0  0  0  0  0  0
   56.7991  -31.5089   -9.6351 C   0  0  0  0  0  0  0  0  0  0  0  0
   57.8133  -32.4205   -9.9135 C   0  0  0  0  0  0  0  0  0  0  0  0
   55.7055  -34.4466   -2.9813 N   0  0  0  0  0  0  0  0  0  0  0  0
   55.0739  -34.4027   -1.6484 C   0  0  2  0  0  0  0  0  0  0  0  0
   53.5251  -34.3257   -1.8082 C   0  0  0  0  0  0  0  0  0  0  0  0
   52.7605  -34.4062   -0.8440 O   0  0  0  0  0  0  0  0  0  0  0  0
   55.6791  -33.2046   -0.8880 C   0  0  0  0  0  0  0  0  0  0  0  0
   56.9072  -32.5243   -1.5294 C   0  0  0  0  0  0  0  0  0  0  0  0
   56.8373  -30.9944   -1.5503 C   0  0  0  0  0  0  0  0  0  0  0  0
   58.0815  -30.4430   -2.0908 N   0  0  0  0  0  0  0  0  0  0  0  0
   58.0442  -29.2563   -2.7513 C   0  0  0  0  0  0  0  0  0  0  0  0
   56.9851  -28.5665   -2.9433 N   0  0  0  0  0  0  0  0  0  0  0  0
   59.2689  -28.9265   -3.2112 N   0  0  0  0  0  0  0  0  0  0  0  0
   53.0615  -34.0846   -3.0912 N   0  0  0  0  0  0  0  0  0  0  0  0
   51.6438  -34.2788   -3.4107 C   0  0  2  0  0  0  0  0  0  0  0  0
   51.4355  -33.8842   -4.8969 C   0  0  0  0  0  0  0  0  0  0  0  0
   52.0156  -32.9221   -5.3935 O   0  0  0  0  0  0  0  0  0  0  0  0
   50.7565  -33.4626   -2.4639 C   0  0  0  0  0  0  0  0  0  0  0  0
   50.8346  -33.9384   -1.0032 C   0  0  0  0  0  0  0  0  0  0  0  0
   49.7672  -33.3346   -0.0832 C   0  0  0  0  0  0  0  0  0  0  0  0
   49.8388  -33.8988    1.2467 N   0  0  0  0  0  0  0  0  0  0  0  0
   50.5647  -35.0052    1.5387 C   0  0  0  0  0  0  0  0  0  0  0  0
   50.4041  -36.1775    1.0283 N   0  0  0  0  0  0  0  0  0  0  0  0
   51.5355  -34.7359    2.4266 N   0  0  0  0  0  0  0  0  0  0  0  0
   50.6007  -34.7269   -5.5914 N   0  0  0  0  0  0  0  0  0  0  0  0
   50.8806  -36.0927   -6.0892 C   0  0  2  0  0  0  0  0  0  0  0  0
   49.5485  -36.7259   -6.5561 C   0  0  0  0  0  0  0  0  0  0  0  0
   48.8303  -37.4075   -5.8349 O   0  0  0  0  0  0  0  0  0  0  0  0
   51.6763  -37.0369   -5.1744 C   0  0  0  0  0  0  0  0  0  0  0  0
   52.1238  -38.3632   -5.8107 C   0  0  0  0  0  0  0  0  0  0  0  0
   52.6617  -39.3059   -4.7391 C   0  0  0  0  0  0  0  0  0  0  0  0
   52.5451  -38.7271   -3.3896 N   0  0  0  0  0  0  0  0  0  0  0  0
   52.9321  -39.4449   -2.3007 C   0  0  0  0  0  0  0  0  0  0  0  0
   53.3924  -40.6542   -2.6579 N   0  0  0  0  0  0  0  0  0  0  0  0
   52.8619  -39.0470   -1.0815 N   0  0  0  0  0  0  0  0  0  0  0  0
   48.0052  -36.2278   -9.8971 C   0  0  0  0  0  0  0  0  0  0  0  0
   49.1872  -36.3554   -7.8333 N   0  0  0  0  0  0  0  0  0  0  0  0
   49.0485  -35.7360  -10.3464 O   0  0  0  0  0  0  0  0  0  0  0  0
   47.8972  -36.6963   -8.4205 C   0  0  1  0  0  0  0  0  0  0  0  0
   46.7654  -36.0444   -7.6131 C   0  0  0  0  0  0  0  0  0  0  0  0
   45.6868  -37.6328   -5.9288 C   0  0  0  0  0  0  0  0  0  0  0  0
   44.4887  -38.5513   -5.7187 C   0  0  0  0  0  0  0  0  0  0  0  0
   45.6263  -37.0286   -7.3257 C   0  0  0  0  0  0  0  0  0  0  0  0
   44.5277  -39.1105   -4.3456 N   0  0  0  0  0  4  0  0  0  0  0  0
   46.8961  -36.4431  -10.6846 N   0  0  0  0  0  0  0  0  0  0  0  0
   46.5496  -37.8116  -11.1052 C   0  0  2  0  0  0  0  0  0  0  0  0
   45.4010  -37.6643  -12.1324 C   0  0  0  0  0  0  0  0  0  0  0  0
   44.2512  -37.4682  -11.7458 O   0  0  0  0  0  0  0  0  0  0  0  0
   46.0616  -38.5720   -9.8585 C   0  0  0  0  0  0  0  0  0  0  0  0
   46.0073  -40.1036   -9.9497 C   0  0  0  0  0  0  0  0  0  0  0  0
   47.1263  -40.8067   -9.1751 C   0  0  0  0  0  0  0  0  0  0  0  0
   48.2165  -41.3732  -10.0849 C   0  0  0  0  0  0  0  0  0  0  0  0
   49.3234  -41.9599   -9.2920 N   0  0  0  0  0  4  0  0  0  0  0  0
   45.7732  -37.8052  -13.4497 N   0  0  0  0  0  0  0  0  0  0  0  0
   45.4932  -36.7658  -14.4251 C   0  0  0  0  0  0  0  0  0  0  0  0
   46.6675  -35.9376  -14.8705 C   0  0  0  0  0  0  0  0  0  0  0  0
   47.2798  -36.1260  -16.1153 C   0  0  0  0  0  0  0  0  0  0  0  0
   48.4028  -35.3658  -16.4767 C   0  0  0  0  0  0  0  0  0  0  0  0
   48.9074  -34.3961  -15.6005 C   0  0  0  0  0  0  0  0  0  0  0  0
   50.1046  -33.5808  -15.9744 C   0  0  0  0  0  0  0  0  0  0  0  0
   50.6866  -32.7509  -15.0601 N   0  0  0  0  0  0  0  0  0  0  0  0
   50.5508  -33.6559  -17.1847 N   0  0  0  0  0  0  0  0  0  0  0  0
   48.2920  -34.1998  -14.3636 C   0  0  0  0  0  0  0  0  0  0  0  0
   47.1917  -34.9718  -13.9973 C   0  0  0  0  0  0  0  0  0  0  0  0
   56.1713  -29.0627   -2.5916 H   0  0  0  0  0  0  0  0  0  0  0  0
   51.1264  -36.7518    1.4758 H   0  0  0  0  0  0  0  0  0  0  0  0
   53.1102  -39.8293   -0.4771 H   0  0  0  0  0  0  0  0  0  0  0  0
   51.1929  -32.8853  -17.3916 H   0  0  0  0  0  0  0  0  0  0  0  0
  2  1  1  6
  3  2  1  0
  2  5  1  0
  3  4  2  0
 16  3  1  0
  5  6  1  0
  6  7  2  0
  6  9  1  0
  7  8  1  0
  8 11  2  0
  9 10  2  0
  9 12  1  0
 10 11  1  0
 10 15  1  0
 12 13  2  0
 13 14  1  0
 15 14  2  0
 17 16  1  0
 18 17  1  0
 17 20  1  6
 18 19  2  0
 27 18  1  0
 20 21  1  0
 21 22  1  0
 22 23  1  0
 23 24  1  0
 24 25  2  0
 24 26  1  0
 28 27  1  0
 29 28  1  0
 28 31  1  1
 29 30  2  0
 38 29  1  0
 31 32  1  0
 32 33  1  0
 33 34  1  0
 34 35  1  0
 35 36  2  0
 35 37  1  0
 39 38  1  0
 40 39  1  0
 39 42  1  1
 40 41  2  0
 50 40  1  0
 42 43  1  0
 43 44  1  0
 44 45  1  0
 45 46  1  0
 46 47  1  0
 46 48  2  0
 49 51  2  0
 52 49  1  0
 49 58  1  0
 52 50  1  0
 52 53  1  1
 56 53  1  0
 54 55  1  0
 54 56  1  0
 55 57  1  0
 58 59  1  0
 59 60  1  0
 59 62  1  1
 60 61  2  0
 60 67  1  0
 62 63  1  0
 63 64  1  0
 64 65  1  0
 65 66  1  0
 67 68  1  0
 68 69  1  0
 69 70  2  0
 69 77  1  0
 70 71  1  0
 71 72  2  0
 72 73  1  0
 72 76  1  0
 73 74  1  0
 73 75  2  0
 76 77  2  0
 25 78  1  0
 36 79  1  0
 48 80  1  0
 75 81  1  0
M  CHG  3   1   1  57   1  66   1
M  END
$$$$
