
     RDKit          3D

 81 83  0  0  0  0  0  0  0  0999 V2000
   55.7282  -29.1413   -1.2085 N   0  0  0  0  0  4  0  0  0  0  0  0
   56.9377  -30.0457   -1.1886 C   0  0  2  0  0  0  0  0  0  0  0  0
   57.0900  -30.6994   -2.5887 C   0  0  0  0  0  0  0  0  0  0  0  0
   57.9057  -30.2100   -3.3738 O   0  0  0  0  0  0  0  0  0  0  0  0
   56.8882  -31.0179    0.0014 C   0  0  0  0  0  0  0  0  0  0  0  0
   55.5573  -31.6973    0.2585 C   0  0  0  0  0  0  0  0  0  0  0  0
   55.5307  -32.7140    1.2292 C   0  0  0  0  0  0  0  0  0  0  0  0
   54.3597  -33.4096    1.5087 C   0  0  0  0  0  0  0  0  0  0  0  0
   54.3518  -31.3540   -0.4289 C   0  0  0  0  0  0  0  0  0  0  0  0
   53.1679  -32.0774   -0.1257 C   0  0  0  0  0  0  0  0  0  0  0  0
   53.1901  -33.1011    0.8291 C   0  0  0  0  0  0  0  0  0  0  0  0
   54.2462  -30.3263   -1.3969 C   0  0  0  0  0  0  0  0  0  0  0  0
   53.0363  -30.0437   -2.0389 C   0  0  0  0  0  0  0  0  0  0  0  0
   51.8977  -30.7703   -1.7338 C   0  0  0  0  0  0  0  0  0  0  0  0
   51.9627  -31.7785   -0.7765 C   0  0  0  0  0  0  0  0  0  0  0  0
   56.3827  -31.8468   -2.8216 N   0  0  0  0  0  0  0  0  0  0  0  0
   56.5505  -32.6137   -4.0711 C   0  0  2  0  0  0  0  0  0  0  0  0
   55.4031  -33.6614   -4.1974 C   0  0  0  0  0  0  0  0  0  0  0  0
   54.7576  -34.0495   -3.2210 O   0  0  0  0  0  0  0  0  0  0  0  0
   57.9608  -33.2385   -4.0457 C   0  0  0  0  0  0  0  0  0  0  0  0
   58.1824  -34.4876   -4.9251 C   0  0  0  0  0  0  0  0  0  0  0  0
   59.6018  -35.0588   -4.8571 C   0  0  0  0  0  0  0  0  0  0  0  0
   59.6463  -36.3700   -5.5075 N   0  0  0  0  0  0  0  0  0  0  0  0
   59.9945  -36.4438   -6.8187 C   0  0  0  0  0  0  0  0  0  0  0  0
   60.2735  -35.4349   -7.5525 N   0  0  0  0  0  0  0  0  0  0  0  0
   59.9658  -37.7219   -7.2498 N   0  0  0  0  0  0  0  0  0  0  0  0
   55.1008  -34.0739   -5.4849 N   0  0  0  0  0  0  0  0  0  0  0  0
   54.1673  -33.2977   -6.3069 C   0  0  2  0  0  0  0  0  0  0  0  0
   52.9436  -34.2011   -6.6139 C   0  0  0  0  0  0  0  0  0  0  0  0
   51.8384  -33.7243   -6.8589 O   0  0  0  0  0  0  0  0  0  0  0  0
   54.8535  -32.7971   -7.5830 C   0  0  0  0  0  0  0  0  0  0  0  0
   53.8869  -32.0959   -8.5528 C   0  0  0  0  0  0  0  0  0  0  0  0
   54.3946  -30.7536   -9.0919 C   0  0  0  0  0  0  0  0  0  0  0  0
   53.4077  -30.1193   -9.9379 N   0  0  0  0  0  0  0  0  0  0  0  0
   53.5557  -28.8647  -10.4282 C   0  0  0  0  0  0  0  0  0  0  0  0
   52.6436  -27.9560  -10.4823 N   0  0  0  0  0  0  0  0  0  0  0  0
   54.8154  -28.6423  -10.8369 N   0  0  0  0  0  0  0  0  0  0  0  0
   53.2274  -35.5458   -6.6330 N   0  0  0  0  0  0  0  0  0  0  0  0
   52.2878  -36.6849   -6.5261 C   0  0  2  0  0  0  0  0  0  0  0  0
   50.9571  -36.2872   -7.2078 C   0  0  0  0  0  0  0  0  0  0  0  0
   50.0932  -35.6074   -6.6674 O   0  0  0  0  0  0  0  0  0  0  0  0
   52.0606  -37.2946   -5.1339 C   0  0  0  0  0  0  0  0  0  0  0  0
   52.2534  -36.3375   -3.9461 C   0  0  0  0  0  0  0  0  0  0  0  0
   51.8654  -37.0302   -2.6438 C   0  0  0  0  0  0  0  0  0  0  0  0
   52.1858  -36.2054   -1.4662 N   0  0  0  0  0  0  0  0  0  0  0  0
   51.8772  -36.6461   -0.2167 C   0  0  0  0  0  0  0  0  0  0  0  0
   51.7894  -37.9852   -0.1849 N   0  0  0  0  0  0  0  0  0  0  0  0
   51.6762  -35.8999    0.8091 N   0  0  0  0  0  0  0  0  0  0  0  0
   49.1437  -37.9297   -9.5647 C   0  0  0  0  0  0  0  0  0  0  0  0
   50.8834  -36.6765   -8.5277 N   0  0  0  0  0  0  0  0  0  0  0  0
   49.8878  -38.8585   -9.9050 O   0  0  0  0  0  0  0  0  0  0  0  0
   49.6875  -36.4924   -9.3407 C   0  0  1  0  0  0  0  0  0  0  0  0
   50.0388  -35.7236  -10.6226 C   0  0  0  0  0  0  0  0  0  0  0  0
   47.8826  -34.8659  -11.6895 C   0  0  0  0  0  0  0  0  0  0  0  0
   48.0864  -33.8879  -12.8408 C   0  0  0  0  0  0  0  0  0  0  0  0
   48.9824  -35.9193  -11.7156 C   0  0  0  0  0  0  0  0  0  0  0  0
   47.0868  -32.7963  -12.7466 N   0  0  0  0  0  4  0  0  0  0  0  0
   47.8036  -38.1181   -9.3089 N   0  0  0  0  0  0  0  0  0  0  0  0
   47.2407  -39.4793   -9.3110 C   0  0  2  0  0  0  0  0  0  0  0  0
   45.7073  -39.3071   -9.1890 C   0  0  0  0  0  0  0  0  0  0  0  0
   45.2399  -38.5165   -8.3726 O   0  0  0  0  0  0  0  0  0  0  0  0
   47.7987  -40.2154   -8.0791 C   0  0  0  0  0  0  0  0  0  0  0  0
   47.2168  -39.8314   -6.7113 C   0  0  0  0  0  0  0  0  0  0  0  0
   47.7138  -40.7126   -5.5613 C   0  0  0  0  0  0  0  0  0  0  0  0
   47.2170  -40.2444   -4.1934 C   0  0  0  0  0  0  0  0  0  0  0  0
   47.7310  -41.1165   -3.1102 N   0  0  0  0  0  4  0  0  0  0  0  0
   44.9608  -40.1136  -10.0172 N   0  0  0  0  0  0  0  0  0  0  0  0
   44.1128  -41.1633   -9.4794 C   0  0  0  0  0  0  0  0  0  0  0  0
   43.0436  -40.7264   -8.5154 C   0  0  0  0  0  0  0  0  0  0  0  0
   42.9300  -39.3996   -8.0834 C   0  0  0  0  0  0  0  0  0  0  0  0
   41.9487  -39.0391   -7.1470 C   0  0  0  0  0  0  0  0  0  0  0  0
   41.0603  -40.0029   -6.6528 C   0  0  0  0  0  0  0  0  0  0  0  0
   40.0112  -39.6305   -5.6536 C   0  0  0  0  0  0  0  0  0  0  0  0
   39.1283  -40.5672   -5.1991 N   0  0  0  0  0  0  0  0  0  0  0  0
   39.9407  -38.4021   -5.2591 N   0  0  0  0  0  0  0  0  0  0  0  0
   41.1653  -41.3238   -7.0902 C   0  0  0  0  0  0  0  0  0  0  0  0
   42.1552  -41.6841   -8.0019 C   0  0  0  0  0  0  0  0  0  0  0  0
   60.1372  -34.5719   -7.0340 H   0  0  0  0  0  0  0  0  0  0  0  0
   52.0535  -28.1376   -9.6634 H   0  0  0  0  0  0  0  0  0  0  0  0
   51.2750  -35.0196    0.4881 H   0  0  0  0  0  0  0  0  0  0  0  0
   39.2833  -38.2998   -4.4805 H   0  0  0  0  0  0  0  0  0  0  0  0
  2  1  1  6
  3  2  1  0
  2  5  1  0
  3  4  2  0
 16  3  1  0
  5  6  1  0
  6  7  2  0
  6  9  1  0
  7  8  1  0
  8 11  2  0
  9 10  2  0
  9 12  1  0
 10 11  1  0
 10 15  1  0
 12 13  2  0
 13 14  1  0
 15 14  2  0
 17 16  1  0
 18 17  1  0
 17 20  1  1
 18 19  2  0
 27 18  1  0
 20 21  1  0
 21 22  1  0
 22 23  1  0
 23 24  1  0
 24 25  2  0
 24 26  1  0
 28 27  1  0
 29 28  1  0
 28 31  1  6
 29 30  2  0
 38 29  1  0
 31 32  1  0
 32 33  1  0
 33 34  1  0
 34 35  1  0
 35 36  2  0
 35 37  1  0
 39 38  1  0
 40 39  1  0
 39 42  1  1
 40 41  2  0
 50 40  1  0
 42 43  1  0
 43 44  1  0
 44 45  1  0
 45 46  1  0
 46 47  1  0
 46 48  2  0
 49 51  2  0
 52 49  1  0
 49 58  1  0
 52 50  1  0
 52 53  1  6
 56 53  1  0
 54 55  1  0
 54 56  1  0
 55 57  1  0
 58 59  1  0
 59 60  1  0
 59 62  1  1
 60 61  2  0
 60 67  1  0
 62 63  1  0
 63 64  1  0
 64 65  1  0
 65 66  1  0
 67 68  1  0
 68 69  1  0
 69 70  2  0
 69 77  1  0
 70 71  1  0
 71 72  2  0
 72 73  1  0
 72 76  1  0
 73 74  1  0
 73 75  2  0
 76 77  2  0
 25 78  1  0
 36 79  1  0
 48 80  1  0
 75 81  1  0
M  CHG  3   1   1  57   1  66   1
M  END
$$$$
