
     RDKit          3D

 81 83  0  0  0  0  0  0  0  0999 V2000
   56.3635  -32.3824   -5.5652 N   0  0  0  0  0  4  0  0  0  0  0  0
   57.0623  -33.6106   -6.0987 C   0  0  2  0  0  0  0  0  0  0  0  0
   56.3642  -34.8693   -5.5166 C   0  0  0  0  0  0  0  0  0  0  0  0
   56.5280  -35.9458   -6.0959 O   0  0  0  0  0  0  0  0  0  0  0  0
   58.5819  -33.5274   -5.8799 C   0  0  0  0  0  0  0  0  0  0  0  0
   59.2293  -32.1869   -6.1676 C   0  0  0  0  0  0  0  0  0  0  0  0
   60.5799  -32.0341   -5.8080 C   0  0  0  0  0  0  0  0  0  0  0  0
   61.2448  -30.8298   -6.0090 C   0  0  0  0  0  0  0  0  0  0  0  0
   58.5396  -31.0940   -6.7786 C   0  0  0  0  0  0  0  0  0  0  0  0
   59.2398  -29.8741   -6.9750 C   0  0  0  0  0  0  0  0  0  0  0  0
   60.5771  -29.7549   -6.5782 C   0  0  0  0  0  0  0  0  0  0  0  0
   57.1942  -31.1398   -7.2167 C   0  0  0  0  0  0  0  0  0  0  0  0
   56.5744  -30.0313   -7.8025 C   0  0  0  0  0  0  0  0  0  0  0  0
   57.2750  -28.8492   -7.9737 C   0  0  0  0  0  0  0  0  0  0  0  0
   58.6039  -28.7738   -7.5672 C   0  0  0  0  0  0  0  0  0  0  0  0
   55.6970  -34.7208   -4.3318 N   0  0  0  0  0  0  0  0  0  0  0  0
   54.9940  -35.8526   -3.6976 C   0  0  2  0  0  0  0  0  0  0  0  0
   53.4740  -35.7769   -4.0351 C   0  0  0  0  0  0  0  0  0  0  0  0
   52.8362  -36.7607   -4.4171 O   0  0  0  0  0  0  0  0  0  0  0  0
   55.2970  -35.7980   -2.1859 C   0  0  0  0  0  0  0  0  0  0  0  0
   54.7680  -36.9681   -1.3294 C   0  0  0  0  0  0  0  0  0  0  0  0
   55.0987  -36.8537    0.1617 C   0  0  0  0  0  0  0  0  0  0  0  0
   56.3484  -37.5590    0.4536 N   0  0  0  0  0  0  0  0  0  0  0  0
   57.5301  -36.9428    0.1894 C   0  0  0  0  0  0  0  0  0  0  0  0
   57.7773  -35.7129    0.4355 N   0  0  0  0  0  0  0  0  0  0  0  0
   58.3912  -37.7948   -0.4044 N   0  0  0  0  0  0  0  0  0  0  0  0
   52.8647  -34.5538   -3.8067 N   0  0  0  0  0  0  0  0  0  0  0  0
   51.4501  -34.4953   -3.4256 C   0  0  2  0  0  0  0  0  0  0  0  0
   50.6078  -34.5211   -4.7285 C   0  0  0  0  0  0  0  0  0  0  0  0
   49.3926  -34.3433   -4.7115 O   0  0  0  0  0  0  0  0  0  0  0  0
   51.1671  -33.2510   -2.5763 C   0  0  0  0  0  0  0  0  0  0  0  0
   52.2980  -32.9265   -1.5853 C   0  0  0  0  0  0  0  0  0  0  0  0
   52.2129  -31.5275   -0.9642 C   0  0  0  0  0  0  0  0  0  0  0  0
   51.6143  -31.5718    0.3519 N   0  0  0  0  0  0  0  0  0  0  0  0
   50.2908  -31.7830    0.5516 C   0  0  0  0  0  0  0  0  0  0  0  0
   49.3263  -31.2659   -0.1288 N   0  0  0  0  0  0  0  0  0  0  0  0
   50.0774  -32.6531    1.5520 N   0  0  0  0  0  0  0  0  0  0  0  0
   51.3464  -34.7066   -5.8728 N   0  0  0  0  0  0  0  0  0  0  0  0
   50.8637  -34.8510   -7.2648 C   0  0  2  0  0  0  0  0  0  0  0  0
   51.0657  -36.3210   -7.7027 C   0  0  0  0  0  0  0  0  0  0  0  0
   52.1397  -36.9070   -7.6413 O   0  0  0  0  0  0  0  0  0  0  0  0
   51.3973  -33.8608   -8.3119 C   0  0  0  0  0  0  0  0  0  0  0  0
   50.9778  -34.1354   -9.7654 C   0  0  0  0  0  0  0  0  0  0  0  0
   51.5195  -33.0452  -10.6843 C   0  0  0  0  0  0  0  0  0  0  0  0
   51.1792  -33.2967  -12.0951 N   0  0  0  0  0  0  0  0  0  0  0  0
   49.9464  -32.9730  -12.5708 C   0  0  0  0  0  0  0  0  0  0  0  0
   49.2610  -34.0720  -12.9233 N   0  0  0  0  0  0  0  0  0  0  0  0
   49.4824  -31.7815  -12.6912 N   0  0  0  0  0  0  0  0  0  0  0  0
   48.3683  -38.6476   -8.7418 C   0  0  0  0  0  0  0  0  0  0  0  0
   49.8930  -36.9480   -8.0644 N   0  0  0  0  0  0  0  0  0  0  0  0
   47.7775  -39.7307   -8.6415 O   0  0  0  0  0  0  0  0  0  0  0  0
   49.7308  -38.3964   -8.0402 C   0  0  1  0  0  0  0  0  0  0  0  0
   49.8221  -38.9097   -6.5959 C   0  0  0  0  0  0  0  0  0  0  0  0
   52.0552  -40.1377   -6.4263 C   0  0  0  0  0  0  0  0  0  0  0  0
   51.7920  -41.2215   -5.3874 C   0  0  0  0  0  0  0  0  0  0  0  0
   51.2615  -38.8874   -6.0699 C   0  0  0  0  0  0  0  0  0  0  0  0
   52.4934  -42.4672   -5.7821 N   0  0  0  0  0  4  0  0  0  0  0  0
   47.8349  -37.5810   -9.4308 N   0  0  0  0  0  0  0  0  0  0  0  0
   46.5632  -37.7390  -10.1571 C   0  0  2  0  0  0  0  0  0  0  0  0
   46.8770  -38.6403  -11.3758 C   0  0  0  0  0  0  0  0  0  0  0  0
   48.0256  -38.7153  -11.8061 O   0  0  0  0  0  0  0  0  0  0  0  0
   46.1168  -36.3411  -10.6231 C   0  0  0  0  0  0  0  0  0  0  0  0
   46.9983  -35.6356  -11.6634 C   0  0  0  0  0  0  0  0  0  0  0  0
   46.4485  -34.2804  -12.1190 C   0  0  0  0  0  0  0  0  0  0  0  0
   45.9471  -34.2952  -13.5631 C   0  0  0  0  0  0  0  0  0  0  0  0
   45.5082  -32.9452  -13.9910 N   0  0  0  0  0  4  0  0  0  0  0  0
   45.7904  -39.2847  -11.9214 N   0  0  0  0  0  0  0  0  0  0  0  0
   45.1230  -40.3635  -11.2136 C   0  0  0  0  0  0  0  0  0  0  0  0
   45.7733  -41.7174  -11.2984 C   0  0  0  0  0  0  0  0  0  0  0  0
   45.1717  -42.8650  -10.7684 C   0  0  0  0  0  0  0  0  0  0  0  0
   45.8304  -44.1029  -10.8250 C   0  0  0  0  0  0  0  0  0  0  0  0
   47.0887  -44.2030  -11.4326 C   0  0  0  0  0  0  0  0  0  0  0  0
   47.8008  -45.5169  -11.4977 C   0  0  0  0  0  0  0  0  0  0  0  0
   48.8773  -45.6778  -12.3215 N   0  0  0  0  0  0  0  0  0  0  0  0
   47.3550  -46.4982  -10.7851 N   0  0  0  0  0  0  0  0  0  0  0  0
   47.6853  -43.0621  -11.9707 C   0  0  0  0  0  0  0  0  0  0  0  0
   47.0400  -41.8299  -11.8925 C   0  0  0  0  0  0  0  0  0  0  0  0
   56.9343  -35.1553    0.3321 H   0  0  0  0  0  0  0  0  0  0  0  0
   48.5205  -31.2996    0.5047 H   0  0  0  0  0  0  0  0  0  0  0  0
   50.0853  -31.1508  -12.1642 H   0  0  0  0  0  0  0  0  0  0  0  0
   46.5285  -46.2207  -10.2477 H   0  0  0  0  0  0  0  0  0  0  0  0
  2  1  1  1
  3  2  1  0
  2  5  1  0
  3  4  2  0
 16  3  1  0
  5  6  1  0
  6  7  2  0
  6  9  1  0
  7  8  1  0
  8 11  2  0
  9 10  2  0
  9 12  1  0
 10 11  1  0
 10 15  1  0
 12 13  2  0
 13 14  1  0
 15 14  2  0
 17 16  1  0
 18 17  1  0
 17 20  1  1
 18 19  2  0
 27 18  1  0
 20 21  1  0
 21 22  1  0
 22 23  1  0
 23 24  1  0
 24 25  2  0
 24 26  1  0
 28 27  1  0
 29 28  1  0
 28 31  1  6
 29 30  2  0
 38 29  1  0
 31 32  1  0
 32 33  1  0
 33 34  1  0
 34 35  1  0
 35 36  2  0
 35 37  1  0
 39 38  1  0
 40 39  1  0
 39 42  1  6
 40 41  2  0
 50 40  1  0
 42 43  1  0
 43 44  1  0
 44 45  1  0
 45 46  1  0
 46 47  1  0
 46 48  2  0
 49 51  2  0
 52 49  1  0
 49 58  1  0
 52 50  1  0
 52 53  1  1
 56 53  1  0
 54 55  1  0
 54 56  1  0
 55 57  1  0
 58 59  1  0
 59 60  1  0
 59 62  1  6
 60 61  2  0
 60 67  1  0
 62 63  1  0
 63 64  1  0
 64 65  1  0
 65 66  1  0
 67 68  1  0
 68 69  1  0
 69 70  2  0
 69 77  1  0
 70 71  1  0
 71 72  2  0
 72 73  1  0
 72 76  1  0
 73 74  1  0
 73 75  2  0
 76 77  2  0
 25 78  1  0
 36 79  1  0
 48 80  1  0
 75 81  1  0
M  CHG  3   1   1  57   1  66   1
M  END
$$$$
