
     RDKit          3D

 81 83  0  0  0  0  0  0  0  0999 V2000
   55.4353  -33.7636    0.2054 N   0  0  0  0  0  4  0  0  0  0  0  0
   56.3143  -32.6604   -0.3348 C   0  0  2  0  0  0  0  0  0  0  0  0
   55.9964  -32.4678   -1.8423 C   0  0  0  0  0  0  0  0  0  0  0  0
   56.1514  -31.3460   -2.3310 O   0  0  0  0  0  0  0  0  0  0  0  0
   57.7923  -32.9045    0.0110 C   0  0  0  0  0  0  0  0  0  0  0  0
   58.1930  -32.6640    1.4534 C   0  0  0  0  0  0  0  0  0  0  0  0
   57.1894  -32.2274    2.3359 C   0  0  0  0  0  0  0  0  0  0  0  0
   57.4742  -31.9550    3.6692 C   0  0  0  0  0  0  0  0  0  0  0  0
   59.5208  -32.8600    1.9453 C   0  0  0  0  0  0  0  0  0  0  0  0
   59.7876  -32.5765    3.3111 C   0  0  0  0  0  0  0  0  0  0  0  0
   58.7652  -32.1180    4.1505 C   0  0  0  0  0  0  0  0  0  0  0  0
   60.6035  -33.3306    1.1639 C   0  0  0  0  0  0  0  0  0  0  0  0
   61.8827  -33.4953    1.7048 C   0  0  0  0  0  0  0  0  0  0  0  0
   62.1204  -33.2020    3.0371 C   0  0  0  0  0  0  0  0  0  0  0  0
   61.0752  -32.7506    3.8377 C   0  0  0  0  0  0  0  0  0  0  0  0
   55.6662  -33.5857   -2.5580 N   0  0  0  0  0  0  0  0  0  0  0  0
   54.9176  -33.4940   -3.8264 C   0  0  2  0  0  0  0  0  0  0  0  0
   54.6039  -34.9280   -4.3510 C   0  0  0  0  0  0  0  0  0  0  0  0
   55.3256  -35.4999   -5.1712 O   0  0  0  0  0  0  0  0  0  0  0  0
   55.7609  -32.6474   -4.8021 C   0  0  0  0  0  0  0  0  0  0  0  0
   56.8307  -33.3966   -5.6248 C   0  0  0  0  0  0  0  0  0  0  0  0
   57.6044  -32.5088   -6.6041 C   0  0  0  0  0  0  0  0  0  0  0  0
   56.9467  -32.5140   -7.9124 N   0  0  0  0  0  0  0  0  0  0  0  0
   57.4999  -31.8051   -8.9310 C   0  0  0  0  0  0  0  0  0  0  0  0
   58.5561  -31.0922   -8.8281 N   0  0  0  0  0  0  0  0  0  0  0  0
   56.7603  -31.9238  -10.0530 N   0  0  0  0  0  0  0  0  0  0  0  0
   53.5058  -35.5525   -3.7821 N   0  0  0  0  0  0  0  0  0  0  0  0
   52.1492  -35.1620   -4.1784 C   0  0  2  0  0  0  0  0  0  0  0  0
   52.0684  -35.2376   -5.7261 C   0  0  0  0  0  0  0  0  0  0  0  0
   52.5507  -34.3606   -6.4382 O   0  0  0  0  0  0  0  0  0  0  0  0
   51.8088  -33.7650   -3.6472 C   0  0  0  0  0  0  0  0  0  0  0  0
   51.1344  -33.7926   -2.2649 C   0  0  0  0  0  0  0  0  0  0  0  0
   51.7275  -34.8182   -1.2919 C   0  0  0  0  0  0  0  0  0  0  0  0
   51.2210  -34.6252    0.0491 N   0  0  0  0  0  0  0  0  0  0  0  0
   49.9608  -34.1980    0.3054 C   0  0  0  0  0  0  0  0  0  0  0  0
   49.5715  -32.9714    0.3709 N   0  0  0  0  0  0  0  0  0  0  0  0
   49.1133  -35.2289    0.4550 N   0  0  0  0  0  0  0  0  0  0  0  0
   51.4654  -36.3769   -6.2034 N   0  0  0  0  0  0  0  0  0  0  0  0
   51.1789  -36.7453   -7.6083 C   0  0  2  0  0  0  0  0  0  0  0  0
   49.8220  -36.1208   -8.0110 C   0  0  0  0  0  0  0  0  0  0  0  0
   48.8432  -36.0891   -7.2751 O   0  0  0  0  0  0  0  0  0  0  0  0
   51.2624  -38.2321   -7.9876 C   0  0  0  0  0  0  0  0  0  0  0  0
   52.0730  -39.1212   -7.0300 C   0  0  0  0  0  0  0  0  0  0  0  0
   52.0759  -40.5633   -7.5265 C   0  0  0  0  0  0  0  0  0  0  0  0
   52.9552  -41.4220   -6.7147 N   0  0  0  0  0  0  0  0  0  0  0  0
   54.2876  -41.4855   -6.9820 C   0  0  0  0  0  0  0  0  0  0  0  0
   54.8379  -42.5815   -6.4363 N   0  0  0  0  0  0  0  0  0  0  0  0
   54.9564  -40.6173   -7.6516 N   0  0  0  0  0  0  0  0  0  0  0  0
   47.8327  -36.6748   -9.7027 C   0  0  0  0  0  0  0  0  0  0  0  0
   49.8517  -35.4991   -9.2405 N   0  0  0  0  0  0  0  0  0  0  0  0
   47.8649  -37.1146   -8.5461 O   0  0  0  0  0  0  0  0  0  0  0  0
   48.7025  -35.4638  -10.1367 C   0  0  1  0  0  0  0  0  0  0  0  0
   49.1760  -35.4941  -11.5970 C   0  0  0  0  0  0  0  0  0  0  0  0
   50.7039  -34.0637  -13.0608 C   0  0  0  0  0  0  0  0  0  0  0  0
   51.9484  -33.1868  -12.9857 C   0  0  0  0  0  0  0  0  0  0  0  0
   50.5569  -34.8508  -11.7651 C   0  0  0  0  0  0  0  0  0  0  0  0
   52.8414  -33.6847  -11.9113 N   0  0  0  0  0  4  0  0  0  0  0  0
   46.9882  -37.1898  -10.6610 N   0  0  0  0  0  0  0  0  0  0  0  0
   45.5296  -37.0715  -10.4935 C   0  0  2  0  0  0  0  0  0  0  0  0
   44.9000  -37.8471  -11.6758 C   0  0  0  0  0  0  0  0  0  0  0  0
   43.6876  -37.7959  -11.8694 O   0  0  0  0  0  0  0  0  0  0  0  0
   45.1711  -35.5766  -10.5795 C   0  0  0  0  0  0  0  0  0  0  0  0
   44.5831  -34.9243   -9.3202 C   0  0  0  0  0  0  0  0  0  0  0  0
   43.0528  -34.9623   -9.2643 C   0  0  0  0  0  0  0  0  0  0  0  0
   42.5000  -34.6840   -7.8665 C   0  0  0  0  0  0  0  0  0  0  0  0
   41.6724  -33.4539   -7.8535 N   0  0  0  0  0  4  0  0  0  0  0  0
   45.7840  -38.5897  -12.4247 N   0  0  0  0  0  0  0  0  0  0  0  0
   46.0850  -39.9690  -12.0827 C   0  0  0  0  0  0  0  0  0  0  0  0
   44.9389  -40.7895  -11.5568 C   0  0  0  0  0  0  0  0  0  0  0  0
   44.9466  -42.1888  -11.5980 C   0  0  0  0  0  0  0  0  0  0  0  0
   43.8387  -42.9189  -11.1407 C   0  0  0  0  0  0  0  0  0  0  0  0
   42.7230  -42.2513  -10.6191 C   0  0  0  0  0  0  0  0  0  0  0  0
   41.5359  -43.0190  -10.1299 C   0  0  0  0  0  0  0  0  0  0  0  0
   41.5402  -44.3839  -10.1528 N   0  0  0  0  0  0  0  0  0  0  0  0
   40.5013  -42.3630   -9.7191 N   0  0  0  0  0  0  0  0  0  0  0  0
   42.7178  -40.8568  -10.5676 C   0  0  0  0  0  0  0  0  0  0  0  0
   43.8090  -40.1334  -11.0438 C   0  0  0  0  0  0  0  0  0  0  0  0
   58.9040  -31.1112   -7.8736 H   0  0  0  0  0  0  0  0  0  0  0  0
   49.0682  -32.8160   -0.5091 H   0  0  0  0  0  0  0  0  0  0  0  0
   54.3243  -39.8614   -7.9126 H   0  0  0  0  0  0  0  0  0  0  0  0
   40.3383  -41.5304  -10.2928 H   0  0  0  0  0  0  0  0  0  0  0  0
  2  1  1  6
  3  2  1  0
  2  5  1  0
  3  4  2  0
 16  3  1  0
  5  6  1  0
  6  7  2  0
  6  9  1  0
  7  8  1  0
  8 11  2  0
  9 10  2  0
  9 12  1  0
 10 11  1  0
 10 15  1  0
 12 13  2  0
 13 14  1  0
 15 14  2  0
 17 16  1  0
 18 17  1  0
 17 20  1  6
 18 19  2  0
 27 18  1  0
 20 21  1  0
 21 22  1  0
 22 23  1  0
 23 24  1  0
 24 25  2  0
 24 26  1  0
 28 27  1  0
 29 28  1  0
 28 31  1  6
 29 30  2  0
 38 29  1  0
 31 32  1  0
 32 33  1  0
 33 34  1  0
 34 35  1  0
 35 36  2  0
 35 37  1  0
 39 38  1  0
 40 39  1  0
 39 42  1  1
 40 41  2  0
 50 40  1  0
 42 43  1  0
 43 44  1  0
 44 45  1  0
 45 46  1  0
 46 47  1  0
 46 48  2  0
 49 51  2  0
 52 49  1  0
 49 58  1  0
 52 50  1  0
 52 53  1  6
 56 53  1  0
 54 55  1  0
 54 56  1  0
 55 57  1  0
 58 59  1  0
 59 60  1  0
 59 62  1  6
 60 61  2  0
 60 67  1  0
 62 63  1  0
 63 64  1  0
 64 65  1  0
 65 66  1  0
 67 68  1  0
 68 69  1  0
 69 70  2  0
 69 77  1  0
 70 71  1  0
 71 72  2  0
 72 73  1  0
 72 76  1  0
 73 74  1  0
 73 75  2  0
 76 77  2  0
 25 78  1  0
 36 79  1  0
 48 80  1  0
 75 81  1  0
M  CHG  3   1   1  57   1  66   1
M  END
$$$$
