
     RDKit          3D

 81 83  0  0  0  0  0  0  0  0999 V2000
   56.8377  -38.3240   -0.8887 N   0  0  0  0  0  4  0  0  0  0  0  0
   56.7267  -37.8121   -2.3054 C   0  0  2  0  0  0  0  0  0  0  0  0
   56.0488  -36.4156   -2.2754 C   0  0  0  0  0  0  0  0  0  0  0  0
   55.9033  -35.8163   -3.3436 O   0  0  0  0  0  0  0  0  0  0  0  0
   56.0705  -38.8544   -3.2257 C   0  0  0  0  0  0  0  0  0  0  0  0
   55.5229  -38.3380   -4.5419 C   0  0  0  0  0  0  0  0  0  0  0  0
   56.4169  -38.2586   -5.6240 C   0  0  0  0  0  0  0  0  0  0  0  0
   56.0074  -37.7699   -6.8596 C   0  0  0  0  0  0  0  0  0  0  0  0
   54.1630  -37.9380   -4.7266 C   0  0  0  0  0  0  0  0  0  0  0  0
   53.7675  -37.4434   -5.9977 C   0  0  0  0  0  0  0  0  0  0  0  0
   54.6959  -37.3555   -7.0420 C   0  0  0  0  0  0  0  0  0  0  0  0
   53.1643  -38.0072   -3.7255 C   0  0  0  0  0  0  0  0  0  0  0  0
   51.8506  -37.5936   -3.9687 C   0  0  0  0  0  0  0  0  0  0  0  0
   51.4918  -37.1047   -5.2137 C   0  0  0  0  0  0  0  0  0  0  0  0
   52.4453  -37.0362   -6.2252 C   0  0  0  0  0  0  0  0  0  0  0  0
   55.5578  -35.9863   -1.0731 N   0  0  0  0  0  0  0  0  0  0  0  0
   55.3026  -34.5564   -0.8126 C   0  0  2  0  0  0  0  0  0  0  0  0
   54.3495  -33.9893   -1.9080 C   0  0  0  0  0  0  0  0  0  0  0  0
   54.2763  -34.4840   -3.0352 O   0  0  0  0  0  0  0  0  0  0  0  0
   56.6702  -33.8451   -0.7518 C   0  0  0  0  0  0  0  0  0  0  0  0
   57.6009  -34.2294    0.4180 C   0  0  0  0  0  0  0  0  0  0  0  0
   58.8082  -35.0774    0.0067 C   0  0  0  0  0  0  0  0  0  0  0  0
   59.9712  -34.2171   -0.2202 N   0  0  0  0  0  0  0  0  0  0  0  0
   60.7546  -33.8759    0.8361 C   0  0  0  0  0  0  0  0  0  0  0  0
   60.3740  -33.1477    1.8155 N   0  0  0  0  0  0  0  0  0  0  0  0
   61.9990  -34.3760    0.6897 N   0  0  0  0  0  0  0  0  0  0  0  0
   53.5325  -32.9420   -1.5144 N   0  0  0  0  0  0  0  0  0  0  0  0
   52.6460  -32.2941   -2.4861 C   0  0  2  0  0  0  0  0  0  0  0  0
   52.7569  -33.0755   -3.8221 C   0  0  0  0  0  0  0  0  0  0  0  0
   53.5471  -32.7382   -4.6999 O   0  0  0  0  0  0  0  0  0  0  0  0
   53.0073  -30.8132   -2.6485 C   0  0  0  0  0  0  0  0  0  0  0  0
   52.8794  -30.0137   -1.3405 C   0  0  0  0  0  0  0  0  0  0  0  0
   53.6699  -28.7003   -1.3219 C   0  0  0  0  0  0  0  0  0  0  0  0
   54.0420  -28.2914   -2.6585 N   0  0  0  0  0  0  0  0  0  0  0  0
   55.3045  -28.4035   -3.1377 C   0  0  0  0  0  0  0  0  0  0  0  0
   56.3527  -28.7144   -2.4558 N   0  0  0  0  0  0  0  0  0  0  0  0
   55.3489  -28.1834   -4.4618 N   0  0  0  0  0  0  0  0  0  0  0  0
   51.9417  -34.1795   -3.8978 N   0  0  0  0  0  0  0  0  0  0  0  0
   50.4698  -34.2262   -4.0501 C   0  0  2  0  0  0  0  0  0  0  0  0
   50.1082  -33.7215   -5.4672 C   0  0  0  0  0  0  0  0  0  0  0  0
   50.6231  -32.7415   -5.9916 O   0  0  0  0  0  0  0  0  0  0  0  0
   49.6180  -33.5500   -2.9645 C   0  0  0  0  0  0  0  0  0  0  0  0
   49.7429  -34.1434   -1.5515 C   0  0  0  0  0  0  0  0  0  0  0  0
   48.8942  -33.3441   -0.5681 C   0  0  0  0  0  0  0  0  0  0  0  0
   48.5310  -34.1395    0.6171 N   0  0  0  0  0  0  0  0  0  0  0  0
   49.4142  -34.2847    1.6417 C   0  0  0  0  0  0  0  0  0  0  0  0
   49.8666  -35.5464    1.7142 N   0  0  0  0  0  0  0  0  0  0  0  0
   49.7720  -33.3575    2.4552 N   0  0  0  0  0  0  0  0  0  0  0  0
   48.5360  -36.3203   -7.5654 C   0  0  0  0  0  0  0  0  0  0  0  0
   49.2295  -34.5487   -6.1325 N   0  0  0  0  0  0  0  0  0  0  0  0
   47.9977  -36.8255   -6.5718 O   0  0  0  0  0  0  0  0  0  0  0  0
   49.5231  -35.1283   -7.4375 C   0  0  1  0  0  0  0  0  0  0  0  0
   51.0096  -35.5038   -7.5215 C   0  0  0  0  0  0  0  0  0  0  0  0
   53.2825  -34.8084   -8.4561 C   0  0  0  0  0  0  0  0  0  0  0  0
   54.2339  -33.9618   -7.6186 C   0  0  0  0  0  0  0  0  0  0  0  0
   51.8452  -34.3940   -8.1688 C   0  0  0  0  0  0  0  0  0  0  0  0
   55.5232  -34.6772   -7.4582 N   0  0  0  0  0  4  0  0  0  0  0  0
   48.2553  -36.7408   -8.8464 N   0  0  0  0  0  0  0  0  0  0  0  0
   46.9627  -36.3981   -9.4643 C   0  0  2  0  0  0  0  0  0  0  0  0
   46.8210  -37.3225  -10.6977 C   0  0  0  0  0  0  0  0  0  0  0  0
   47.6661  -37.2928  -11.5893 O   0  0  0  0  0  0  0  0  0  0  0  0
   47.0329  -34.9238   -9.9026 C   0  0  0  0  0  0  0  0  0  0  0  0
   45.8490  -34.3777  -10.7132 C   0  0  0  0  0  0  0  0  0  0  0  0
   45.3398  -35.3442  -11.7870 C   0  0  0  0  0  0  0  0  0  0  0  0
   44.3071  -34.7100  -12.7189 C   0  0  0  0  0  0  0  0  0  0  0  0
   43.1868  -35.6426  -12.9897 N   0  0  0  0  0  4  0  0  0  0  0  0
   45.6933  -38.1111  -10.7107 N   0  0  0  0  0  0  0  0  0  0  0  0
   45.4758  -39.1282   -9.6966 C   0  0  0  0  0  0  0  0  0  0  0  0
   45.9789  -40.5086  -10.0202 C   0  0  0  0  0  0  0  0  0  0  0  0
   45.4399  -41.6545   -9.4234 C   0  0  0  0  0  0  0  0  0  0  0  0
   45.9669  -42.9221   -9.7151 C   0  0  0  0  0  0  0  0  0  0  0  0
   47.0251  -43.0517  -10.6240 C   0  0  0  0  0  0  0  0  0  0  0  0
   47.5958  -44.3975  -10.9417 C   0  0  0  0  0  0  0  0  0  0  0  0
   48.6560  -44.5133  -11.7938 N   0  0  0  0  0  0  0  0  0  0  0  0
   47.0437  -45.4426  -10.4197 N   0  0  0  0  0  0  0  0  0  0  0  0
   47.5567  -41.9115  -11.2278 C   0  0  0  0  0  0  0  0  0  0  0  0
   47.0475  -40.6521  -10.9188 C   0  0  0  0  0  0  0  0  0  0  0  0
   59.9244  -33.7178    2.5263 H   0  0  0  0  0  0  0  0  0  0  0  0
   56.9205  -29.2736   -3.1013 H   0  0  0  0  0  0  0  0  0  0  0  0
   50.1814  -32.5985    1.9118 H   0  0  0  0  0  0  0  0  0  0  0  0
   46.3646  -45.1822   -9.6987 H   0  0  0  0  0  0  0  0  0  0  0  0
  2  1  1  1
  3  2  1  0
  2  5  1  0
  3  4  2  0
 16  3  1  0
  5  6  1  0
  6  7  2  0
  6  9  1  0
  7  8  1  0
  8 11  2  0
  9 10  2  0
  9 12  1  0
 10 11  1  0
 10 15  1  0
 12 13  2  0
 13 14  1  0
 15 14  2  0
 17 16  1  0
 18 17  1  0
 17 20  1  6
 18 19  2  0
 27 18  1  0
 20 21  1  0
 21 22  1  0
 22 23  1  0
 23 24  1  0
 24 25  2  0
 24 26  1  0
 28 27  1  0
 29 28  1  0
 28 31  1  6
 29 30  2  0
 38 29  1  0
 31 32  1  0
 32 33  1  0
 33 34  1  0
 34 35  1  0
 35 36  2  0
 35 37  1  0
 39 38  1  0
 40 39  1  0
 39 42  1  1
 40 41  2  0
 50 40  1  0
 42 43  1  0
 43 44  1  0
 44 45  1  0
 45 46  1  0
 46 47  1  0
 46 48  2  0
 49 51  2  0
 52 49  1  0
 49 58  1  0
 52 50  1  0
 52 53  1  1
 56 53  1  0
 54 55  1  0
 54 56  1  0
 55 57  1  0
 58 59  1  0
 59 60  1  0
 59 62  1  6
 60 61  2  0
 60 67  1  0
 62 63  1  0
 63 64  1  0
 64 65  1  0
 65 66  1  0
 67 68  1  0
 68 69  1  0
 69 70  2  0
 69 77  1  0
 70 71  1  0
 71 72  2  0
 72 73  1  0
 72 76  1  0
 73 74  1  0
 73 75  2  0
 76 77  2  0
 25 78  1  0
 36 79  1  0
 48 80  1  0
 75 81  1  0
M  CHG  3   1   1  57   1  66   1
M  END
$$$$
