
     RDKit          3D

 81 83  0  0  0  0  0  0  0  0999 V2000
   52.6034  -34.1137    0.0004 N   0  0  0  0  0  4  0  0  0  0  0  0
   53.8899  -33.4138   -0.3691 C   0  0  2  0  0  0  0  0  0  0  0  0
   54.0366  -33.4315   -1.9146 C   0  0  0  0  0  0  0  0  0  0  0  0
   54.2280  -32.3592   -2.4933 O   0  0  0  0  0  0  0  0  0  0  0  0
   55.0804  -33.9798    0.4222 C   0  0  0  0  0  0  0  0  0  0  0  0
   54.7826  -34.4660    1.8271 C   0  0  0  0  0  0  0  0  0  0  0  0
   55.7745  -35.2294    2.4676 C   0  0  0  0  0  0  0  0  0  0  0  0
   55.5745  -35.7400    3.7452 C   0  0  0  0  0  0  0  0  0  0  0  0
   53.5616  -34.1855    2.5155 C   0  0  0  0  0  0  0  0  0  0  0  0
   53.3805  -34.7166    3.8202 C   0  0  0  0  0  0  0  0  0  0  0  0
   54.3827  -35.4946    4.4120 C   0  0  0  0  0  0  0  0  0  0  0  0
   52.5079  -33.3995    1.9902 C   0  0  0  0  0  0  0  0  0  0  0  0
   51.3337  -33.1673    2.7138 C   0  0  0  0  0  0  0  0  0  0  0  0
   51.1762  -33.7049    3.9801 C   0  0  0  0  0  0  0  0  0  0  0  0
   52.1984  -34.4709    4.5327 C   0  0  0  0  0  0  0  0  0  0  0  0
   54.0513  -34.6550   -2.5259 N   0  0  0  0  0  0  0  0  0  0  0  0
   54.2717  -34.7865   -3.9791 C   0  0  2  0  0  0  0  0  0  0  0  0
   52.9043  -35.0015   -4.6960 C   0  0  0  0  0  0  0  0  0  0  0  0
   52.8266  -35.4571   -5.8393 O   0  0  0  0  0  0  0  0  0  0  0  0
   55.2725  -35.9407   -4.1935 C   0  0  0  0  0  0  0  0  0  0  0  0
   56.7653  -35.5578   -4.2799 C   0  0  0  0  0  0  0  0  0  0  0  0
   57.3628  -35.6752   -5.6853 C   0  0  0  0  0  0  0  0  0  0  0  0
   58.7300  -35.1509   -5.6942 N   0  0  0  0  0  0  0  0  0  0  0  0
   59.5304  -35.3791   -4.6204 C   0  0  0  0  0  0  0  0  0  0  0  0
   60.6860  -34.8583   -4.4540 N   0  0  0  0  0  0  0  0  0  0  0  0
   58.9568  -36.2605   -3.7753 N   0  0  0  0  0  0  0  0  0  0  0  0
   51.7764  -34.7211   -3.9421 N   0  0  0  0  0  0  0  0  0  0  0  0
   50.6568  -33.9849   -4.5374 C   0  0  2  0  0  0  0  0  0  0  0  0
   50.5463  -34.4137   -6.0246 C   0  0  0  0  0  0  0  0  0  0  0  0
   51.2604  -33.9162   -6.8914 O   0  0  0  0  0  0  0  0  0  0  0  0
   50.8569  -32.4730   -4.3828 C   0  0  0  0  0  0  0  0  0  0  0  0
   49.5343  -31.7005   -4.2409 C   0  0  0  0  0  0  0  0  0  0  0  0
   49.1350  -30.8962   -5.4835 C   0  0  0  0  0  0  0  0  0  0  0  0
   50.0382  -29.7884   -5.7057 N   0  0  0  0  0  0  0  0  0  0  0  0
   49.8146  -28.8326   -6.6397 C   0  0  0  0  0  0  0  0  0  0  0  0
   48.8008  -28.7651   -7.4324 N   0  0  0  0  0  0  0  0  0  0  0  0
   50.7816  -27.9008   -6.6307 N   0  0  0  0  0  0  0  0  0  0  0  0
   49.6311  -35.4128   -6.2559 N   0  0  0  0  0  0  0  0  0  0  0  0
   49.2703  -36.0483   -7.5434 C   0  0  2  0  0  0  0  0  0  0  0  0
   48.0488  -36.9685   -7.3094 C   0  0  0  0  0  0  0  0  0  0  0  0
   47.5691  -37.1937   -6.2050 O   0  0  0  0  0  0  0  0  0  0  0  0
   50.3851  -36.7607   -8.3251 C   0  0  0  0  0  0  0  0  0  0  0  0
   51.3179  -37.6554   -7.4922 C   0  0  0  0  0  0  0  0  0  0  0  0
   52.3650  -38.3048   -8.3912 C   0  0  0  0  0  0  0  0  0  0  0  0
   51.7672  -38.8633   -9.6161 N   0  0  0  0  0  0  0  0  0  0  0  0
   51.8508  -38.1826  -10.7910 C   0  0  0  0  0  0  0  0  0  0  0  0
   51.9567  -39.0251  -11.8307 N   0  0  0  0  0  0  0  0  0  0  0  0
   51.8468  -36.9042  -10.9145 N   0  0  0  0  0  0  0  0  0  0  0  0
   45.7816  -37.4686  -10.1494 C   0  0  0  0  0  0  0  0  0  0  0  0
   47.4778  -37.4239   -8.4780 N   0  0  0  0  0  0  0  0  0  0  0  0
   45.1704  -37.0912  -11.1574 O   0  0  0  0  0  0  0  0  0  0  0  0
   46.7940  -36.5450   -9.4188 C   0  0  1  0  0  0  0  0  0  0  0  0
   47.8187  -35.8548  -10.3305 C   0  0  0  0  0  0  0  0  0  0  0  0
   48.9530  -35.9003  -12.6185 C   0  0  0  0  0  0  0  0  0  0  0  0
   49.0517  -36.7015  -13.9114 C   0  0  0  0  0  0  0  0  0  0  0  0
   47.9734  -36.5810  -11.6713 C   0  0  0  0  0  0  0  0  0  0  0  0
   50.3128  -37.4821  -13.9157 N   0  0  0  0  0  4  0  0  0  0  0  0
   45.6486  -38.7428   -9.6439 N   0  0  0  0  0  0  0  0  0  0  0  0
   44.3535  -39.1841   -9.0982 C   0  0  2  0  0  0  0  0  0  0  0  0
   43.2815  -38.7148  -10.1114 C   0  0  0  0  0  0  0  0  0  0  0  0
   42.5402  -37.7755   -9.8321 O   0  0  0  0  0  0  0  0  0  0  0  0
   44.1561  -38.4813   -7.7426 C   0  0  0  0  0  0  0  0  0  0  0  0
   45.2695  -38.6487   -6.6989 C   0  0  0  0  0  0  0  0  0  0  0  0
   44.9027  -39.5980   -5.5541 C   0  0  0  0  0  0  0  0  0  0  0  0
   43.4273  -39.5173   -5.1618 C   0  0  0  0  0  0  0  0  0  0  0  0
   43.0310  -40.6777   -4.3284 N   0  0  0  0  0  4  0  0  0  0  0  0
   43.2220  -39.4420  -11.2782 N   0  0  0  0  0  0  0  0  0  0  0  0
   42.1923  -39.1873  -12.2708 C   0  0  0  0  0  0  0  0  0  0  0  0
   42.5898  -39.3865  -13.7080 C   0  0  0  0  0  0  0  0  0  0  0  0
   43.7669  -38.8423  -14.2354 C   0  0  0  0  0  0  0  0  0  0  0  0
   44.0808  -39.0100  -15.5930 C   0  0  0  0  0  0  0  0  0  0  0  0
   43.2266  -39.7427  -16.4272 C   0  0  0  0  0  0  0  0  0  0  0  0
   43.5503  -39.9269  -17.8759 C   0  0  0  0  0  0  0  0  0  0  0  0
   44.7306  -39.4651  -18.3830 N   0  0  0  0  0  0  0  0  0  0  0  0
   42.6774  -40.5001  -18.6370 N   0  0  0  0  0  0  0  0  0  0  0  0
   42.0581  -40.2947  -15.9008 C   0  0  0  0  0  0  0  0  0  0  0  0
   41.7367  -40.1070  -14.5583 C   0  0  0  0  0  0  0  0  0  0  0  0
   60.8766  -34.1793   -5.1853 H   0  0  0  0  0  0  0  0  0  0  0  0
   48.3237  -27.8981   -7.1634 H   0  0  0  0  0  0  0  0  0  0  0  0
   52.4445  -36.6592  -11.7029 H   0  0  0  0  0  0  0  0  0  0  0  0
   42.9687  -40.4763  -19.6186 H   0  0  0  0  0  0  0  0  0  0  0  0
  2  1  1  6
  3  2  1  0
  2  5  1  0
  3  4  2  0
 16  3  1  0
  5  6  1  0
  6  7  2  0
  6  9  1  0
  7  8  1  0
  8 11  2  0
  9 10  2  0
  9 12  1  0
 10 11  1  0
 10 15  1  0
 12 13  2  0
 13 14  1  0
 15 14  2  0
 17 16  1  0
 18 17  1  0
 17 20  1  1
 18 19  2  0
 27 18  1  0
 20 21  1  0
 21 22  1  0
 22 23  1  0
 23 24  1  0
 24 25  2  0
 24 26  1  0
 28 27  1  0
 29 28  1  0
 28 31  1  6
 29 30  2  0
 38 29  1  0
 31 32  1  0
 32 33  1  0
 33 34  1  0
 34 35  1  0
 35 36  2  0
 35 37  1  0
 39 38  1  0
 40 39  1  0
 39 42  1  1
 40 41  2  0
 50 40  1  0
 42 43  1  0
 43 44  1  0
 44 45  1  0
 45 46  1  0
 46 47  1  0
 46 48  2  0
 49 51  2  0
 52 49  1  0
 49 58  1  0
 52 50  1  0
 52 53  1  6
 56 53  1  0
 54 55  1  0
 54 56  1  0
 55 57  1  0
 58 59  1  0
 59 60  1  0
 59 62  1  1
 60 61  2  0
 60 67  1  0
 62 63  1  0
 63 64  1  0
 64 65  1  0
 65 66  1  0
 67 68  1  0
 68 69  1  0
 69 70  2  0
 69 77  1  0
 70 71  1  0
 71 72  2  0
 72 73  1  0
 72 76  1  0
 73 74  1  0
 73 75  2  0
 76 77  2  0
 25 78  1  0
 36 79  1  0
 48 80  1  0
 75 81  1  0
M  CHG  3   1   1  57   1  66   1
M  END
$$$$
