
     RDKit          3D

 81 83  0  0  0  0  0  0  0  0999 V2000
   58.4809  -36.0918   -4.3637 N   0  0  0  0  0  4  0  0  0  0  0  0
   58.0607  -37.0189   -5.4797 C   0  0  2  0  0  0  0  0  0  0  0  0
   58.4531  -36.3714   -6.8352 C   0  0  0  0  0  0  0  0  0  0  0  0
   59.5163  -35.7492   -6.8967 O   0  0  0  0  0  0  0  0  0  0  0  0
   56.5864  -37.4312   -5.3375 C   0  0  0  0  0  0  0  0  0  0  0  0
   55.7817  -36.6947   -4.2844 C   0  0  0  0  0  0  0  0  0  0  0  0
   55.3393  -37.4380   -3.1761 C   0  0  0  0  0  0  0  0  0  0  0  0
   54.5714  -36.8499   -2.1773 C   0  0  0  0  0  0  0  0  0  0  0  0
   55.4616  -35.3040   -4.3676 C   0  0  0  0  0  0  0  0  0  0  0  0
   54.6772  -34.7250   -3.3349 C   0  0  0  0  0  0  0  0  0  0  0  0
   54.2340  -35.5067   -2.2613 C   0  0  0  0  0  0  0  0  0  0  0  0
   55.8811  -34.4462   -5.4128 C   0  0  0  0  0  0  0  0  0  0  0  0
   55.5281  -33.0931   -5.4389 C   0  0  0  0  0  0  0  0  0  0  0  0
   54.7534  -32.5541   -4.4256 C   0  0  0  0  0  0  0  0  0  0  0  0
   54.3355  -33.3659   -3.3751 C   0  0  0  0  0  0  0  0  0  0  0  0
   57.6413  -36.6258   -7.9063 N   0  0  0  0  0  0  0  0  0  0  0  0
   57.8838  -36.0011   -9.2210 C   0  0  2  0  0  0  0  0  0  0  0  0
   57.4378  -34.5080   -9.1785 C   0  0  0  0  0  0  0  0  0  0  0  0
   57.9122  -33.6590   -9.9367 O   0  0  0  0  0  0  0  0  0  0  0  0
   57.1377  -36.8413  -10.2780 C   0  0  0  0  0  0  0  0  0  0  0  0
   57.3010  -36.4081  -11.7505 C   0  0  0  0  0  0  0  0  0  0  0  0
   55.9780  -36.1804  -12.4878 C   0  0  0  0  0  0  0  0  0  0  0  0
   56.0931  -36.6335  -13.8756 N   0  0  0  0  0  0  0  0  0  0  0  0
   56.6228  -35.7923  -14.8017 C   0  0  0  0  0  0  0  0  0  0  0  0
   57.6612  -36.0469  -15.5024 N   0  0  0  0  0  0  0  0  0  0  0  0
   55.9278  -34.6371  -14.8513 N   0  0  0  0  0  0  0  0  0  0  0  0
   56.4199  -34.2067   -8.2884 N   0  0  0  0  0  0  0  0  0  0  0  0
   55.9312  -32.8297   -8.1670 C   0  0  2  0  0  0  0  0  0  0  0  0
   54.6593  -32.7001   -9.0464 C   0  0  0  0  0  0  0  0  0  0  0  0
   54.5890  -31.8790   -9.9573 O   0  0  0  0  0  0  0  0  0  0  0  0
   57.0200  -31.8289   -8.5706 C   0  0  0  0  0  0  0  0  0  0  0  0
   57.0690  -31.5687  -10.0859 C   0  0  0  0  0  0  0  0  0  0  0  0
   58.2859  -30.7600  -10.5499 C   0  0  0  0  0  0  0  0  0  0  0  0
   58.6836  -31.1303  -11.8904 N   0  0  0  0  0  0  0  0  0  0  0  0
   58.7651  -30.2379  -12.9068 C   0  0  0  0  0  0  0  0  0  0  0  0
   59.0044  -30.5119  -14.1430 N   0  0  0  0  0  0  0  0  0  0  0  0
   58.5244  -28.9867  -12.4827 N   0  0  0  0  0  0  0  0  0  0  0  0
   53.6705  -33.6054   -8.7431 N   0  0  0  0  0  0  0  0  0  0  0  0
   52.3770  -33.8183   -9.4311 C   0  0  2  0  0  0  0  0  0  0  0  0
   51.6590  -35.0151   -8.7637 C   0  0  0  0  0  0  0  0  0  0  0  0
   51.4969  -36.1003   -9.3085 O   0  0  0  0  0  0  0  0  0  0  0  0
   52.3946  -33.9400  -10.9628 C   0  0  0  0  0  0  0  0  0  0  0  0
   51.2913  -33.1696  -11.7067 C   0  0  0  0  0  0  0  0  0  0  0  0
   51.0289  -33.8084  -13.0666 C   0  0  0  0  0  0  0  0  0  0  0  0
   51.0084  -32.8088  -14.1483 N   0  0  0  0  0  0  0  0  0  0  0  0
   49.9195  -32.0126  -14.3248 C   0  0  0  0  0  0  0  0  0  0  0  0
   50.2741  -30.7204  -14.4055 N   0  0  0  0  0  0  0  0  0  0  0  0
   48.7025  -32.4173  -14.3928 N   0  0  0  0  0  0  0  0  0  0  0  0
   49.3685  -36.1510   -7.4225 C   0  0  0  0  0  0  0  0  0  0  0  0
   51.3168  -34.7814   -7.4494 N   0  0  0  0  0  0  0  0  0  0  0  0
   48.6925  -35.2946   -8.0071 O   0  0  0  0  0  0  0  0  0  0  0  0
   50.6427  -35.7724   -6.6196 C   0  0  1  0  0  0  0  0  0  0  0  0
   50.3816  -35.1945   -5.2212 C   0  0  0  0  0  0  0  0  0  0  0  0
   49.5848  -33.1427   -3.9256 C   0  0  0  0  0  0  0  0  0  0  0  0
   48.2581  -33.5422   -3.2904 C   0  0  0  0  0  0  0  0  0  0  0  0
   49.7201  -33.8135   -5.2864 C   0  0  0  0  0  0  0  0  0  0  0  0
   48.5110  -34.1907   -1.9807 N   0  0  0  0  0  4  0  0  0  0  0  0
   49.0708  -37.4940   -7.4904 N   0  0  0  0  0  0  0  0  0  0  0  0
   47.8498  -37.9406   -8.1828 C   0  0  2  0  0  0  0  0  0  0  0  0
   46.7049  -37.8220   -7.1479 C   0  0  0  0  0  0  0  0  0  0  0  0
   46.9504  -37.4719   -5.9960 O   0  0  0  0  0  0  0  0  0  0  0  0
   48.0569  -39.4112   -8.5893 C   0  0  0  0  0  0  0  0  0  0  0  0
   49.5016  -39.8767   -8.8198 C   0  0  0  0  0  0  0  0  0  0  0  0
   50.0959  -39.4042  -10.1503 C   0  0  0  0  0  0  0  0  0  0  0  0
   51.3160  -40.2184  -10.5810 C   0  0  0  0  0  0  0  0  0  0  0  0
   51.6537  -39.9650  -12.0023 N   0  0  0  0  0  4  0  0  0  0  0  0
   45.4570  -38.1664   -7.6148 N   0  0  0  0  0  0  0  0  0  0  0  0
   44.2700  -37.9730   -6.8000 C   0  0  0  0  0  0  0  0  0  0  0  0
   43.3651  -39.1653   -6.6491 C   0  0  0  0  0  0  0  0  0  0  0  0
   41.9711  -39.0526   -6.7125 C   0  0  0  0  0  0  0  0  0  0  0  0
   41.1580  -40.1802   -6.5202 C   0  0  0  0  0  0  0  0  0  0  0  0
   41.7377  -41.4334   -6.2836 C   0  0  0  0  0  0  0  0  0  0  0  0
   40.8809  -42.6420   -6.0759 C   0  0  0  0  0  0  0  0  0  0  0  0
   39.5596  -42.6177   -6.4181 N   0  0  0  0  0  0  0  0  0  0  0  0
   41.4104  -43.6907   -5.5381 N   0  0  0  0  0  0  0  0  0  0  0  0
   43.1272  -41.5495   -6.2305 C   0  0  0  0  0  0  0  0  0  0  0  0
   43.9319  -40.4246   -6.3982 C   0  0  0  0  0  0  0  0  0  0  0  0
   57.9674  -37.0031  -15.3465 H   0  0  0  0  0  0  0  0  0  0  0  0
   59.4393  -29.6603  -14.5137 H   0  0  0  0  0  0  0  0  0  0  0  0
   48.1410  -31.6695  -14.7983 H   0  0  0  0  0  0  0  0  0  0  0  0
   42.4161  -43.5644   -5.3908 H   0  0  0  0  0  0  0  0  0  0  0  0
  2  1  1  1
  3  2  1  0
  2  5  1  0
  3  4  2  0
 16  3  1  0
  5  6  1  0
  6  7  2  0
  6  9  1  0
  7  8  1  0
  8 11  2  0
  9 10  2  0
  9 12  1  0
 10 11  1  0
 10 15  1  0
 12 13  2  0
 13 14  1  0
 15 14  2  0
 17 16  1  0
 18 17  1  0
 17 20  1  6
 18 19  2  0
 27 18  1  0
 20 21  1  0
 21 22  1  0
 22 23  1  0
 23 24  1  0
 24 25  2  0
 24 26  1  0
 28 27  1  0
 29 28  1  0
 28 31  1  6
 29 30  2  0
 38 29  1  0
 31 32  1  0
 32 33  1  0
 33 34  1  0
 34 35  1  0
 35 36  2  0
 35 37  1  0
 39 38  1  0
 40 39  1  0
 39 42  1  6
 40 41  2  0
 50 40  1  0
 42 43  1  0
 43 44  1  0
 44 45  1  0
 45 46  1  0
 46 47  1  0
 46 48  2  0
 49 51  2  0
 52 49  1  0
 49 58  1  0
 52 50  1  0
 52 53  1  1
 56 53  1  0
 54 55  1  0
 54 56  1  0
 55 57  1  0
 58 59  1  0
 59 60  1  0
 59 62  1  1
 60 61  2  0
 60 67  1  0
 62 63  1  0
 63 64  1  0
 64 65  1  0
 65 66  1  0
 67 68  1  0
 68 69  1  0
 69 70  2  0
 69 77  1  0
 70 71  1  0
 71 72  2  0
 72 73  1  0
 72 76  1  0
 73 74  1  0
 73 75  2  0
 76 77  2  0
 25 78  1  0
 36 79  1  0
 48 80  1  0
 75 81  1  0
M  CHG  3   1   1  57   1  66   1
M  END
$$$$
