
     RDKit          3D

 81 83  0  0  0  0  0  0  0  0999 V2000
   55.7674  -30.8342   -6.3150 N   0  0  0  0  0  4  0  0  0  0  0  0
   56.6741  -31.5767   -5.3622 C   0  0  2  0  0  0  0  0  0  0  0  0
   56.3174  -33.0868   -5.4149 C   0  0  0  0  0  0  0  0  0  0  0  0
   57.0254  -33.8284   -6.1005 O   0  0  0  0  0  0  0  0  0  0  0  0
   56.6612  -30.9350   -3.9651 C   0  0  0  0  0  0  0  0  0  0  0  0
   57.9795  -30.3699   -3.4735 C   0  0  0  0  0  0  0  0  0  0  0  0
   57.9870  -29.7648   -2.2044 C   0  0  0  0  0  0  0  0  0  0  0  0
   59.1451  -29.1952   -1.6872 C   0  0  0  0  0  0  0  0  0  0  0  0
   59.1916  -30.4264   -4.2293 C   0  0  0  0  0  0  0  0  0  0  0  0
   60.3621  -29.8390   -3.6800 C   0  0  0  0  0  0  0  0  0  0  0  0
   60.3207  -29.2226   -2.4237 C   0  0  0  0  0  0  0  0  0  0  0  0
   59.3164  -31.0406   -5.4987 C   0  0  0  0  0  0  0  0  0  0  0  0
   60.5318  -31.0565   -6.1905 C   0  0  0  0  0  0  0  0  0  0  0  0
   61.6571  -30.4675   -5.6386 C   0  0  0  0  0  0  0  0  0  0  0  0
   61.5731  -29.8671   -4.3858 C   0  0  0  0  0  0  0  0  0  0  0  0
   55.3000  -33.5161   -4.6077 N   0  0  0  0  0  0  0  0  0  0  0  0
   54.9803  -34.9500   -4.4693 C   0  0  2  0  0  0  0  0  0  0  0  0
   54.6251  -35.5418   -5.8670 C   0  0  0  0  0  0  0  0  0  0  0  0
   55.4911  -35.8519   -6.6883 O   0  0  0  0  0  0  0  0  0  0  0  0
   53.8414  -35.0733   -3.4361 C   0  0  0  0  0  0  0  0  0  0  0  0
   54.2368  -34.9485   -1.9493 C   0  0  0  0  0  0  0  0  0  0  0  0
   53.0644  -35.0919   -0.9742 C   0  0  0  0  0  0  0  0  0  0  0  0
   52.5837  -36.4750   -0.9679 N   0  0  0  0  0  0  0  0  0  0  0  0
   53.4804  -37.4837   -0.8113 C   0  0  0  0  0  0  0  0  0  0  0  0
   54.4801  -37.6908   -1.5806 N   0  0  0  0  0  0  0  0  0  0  0  0
   53.1484  -38.2593    0.2414 N   0  0  0  0  0  0  0  0  0  0  0  0
   53.2790  -35.7700   -6.1020 N   0  0  0  0  0  0  0  0  0  0  0  0
   52.8527  -36.9569   -6.8498 C   0  0  2  0  0  0  0  0  0  0  0  0
   51.3039  -37.0256   -6.7852 C   0  0  0  0  0  0  0  0  0  0  0  0
   50.7159  -38.0837   -6.5766 O   0  0  0  0  0  0  0  0  0  0  0  0
   53.5135  -38.2204   -6.2870 C   0  0  0  0  0  0  0  0  0  0  0  0
   52.9914  -39.5143   -6.9347 C   0  0  0  0  0  0  0  0  0  0  0  0
   53.9581  -40.1545   -7.9376 C   0  0  0  0  0  0  0  0  0  0  0  0
   53.3403  -40.3135   -9.2358 N   0  0  0  0  0  0  0  0  0  0  0  0
   53.0113  -41.5228   -9.7510 C   0  0  0  0  0  0  0  0  0  0  0  0
   51.9753  -42.2248   -9.4438 N   0  0  0  0  0  0  0  0  0  0  0  0
   53.8946  -41.9168  -10.6827 N   0  0  0  0  0  0  0  0  0  0  0  0
   50.6799  -35.8095   -6.9299 N   0  0  0  0  0  0  0  0  0  0  0  0
   49.2554  -35.5371   -7.2271 C   0  0  2  0  0  0  0  0  0  0  0  0
   49.1571  -34.9502   -8.6552 C   0  0  0  0  0  0  0  0  0  0  0  0
   49.6950  -33.9046   -8.9988 O   0  0  0  0  0  0  0  0  0  0  0  0
   48.4597  -34.7064   -6.2082 C   0  0  0  0  0  0  0  0  0  0  0  0
   49.2717  -34.1305   -5.0364 C   0  0  0  0  0  0  0  0  0  0  0  0
   48.6757  -32.8006   -4.5865 C   0  0  0  0  0  0  0  0  0  0  0  0
   48.3738  -32.7935   -3.1449 N   0  0  0  0  0  0  0  0  0  0  0  0
   49.3340  -32.4471   -2.2455 C   0  0  0  0  0  0  0  0  0  0  0  0
   48.8642  -32.5088   -0.9896 N   0  0  0  0  0  0  0  0  0  0  0  0
   50.5332  -32.0896   -2.5350 N   0  0  0  0  0  0  0  0  0  0  0  0
   46.6796  -36.4369  -10.9286 C   0  0  0  0  0  0  0  0  0  0  0  0
   48.4980  -35.7761   -9.5397 N   0  0  0  0  0  0  0  0  0  0  0  0
   45.5528  -36.2314  -11.3980 O   0  0  0  0  0  0  0  0  0  0  0  0
   47.6557  -35.2701  -10.6164 C   0  0  1  0  0  0  0  0  0  0  0  0
   48.5284  -34.8197  -11.7968 C   0  0  0  0  0  0  0  0  0  0  0  0
   47.4348  -34.6281  -14.0969 C   0  0  0  0  0  0  0  0  0  0  0  0
   48.4391  -33.6587  -14.7093 C   0  0  0  0  0  0  0  0  0  0  0  0
   48.1445  -35.5328  -13.0980 C   0  0  0  0  0  0  0  0  0  0  0  0
   48.7013  -34.0411  -16.1181 N   0  0  0  0  0  4  0  0  0  0  0  0
   47.1619  -37.7075  -10.7057 N   0  0  0  0  0  0  0  0  0  0  0  0
   46.2304  -38.7961  -10.3636 C   0  0  2  0  0  0  0  0  0  0  0  0
   46.4732  -39.1110   -8.8677 C   0  0  0  0  0  0  0  0  0  0  0  0
   47.6201  -39.1953   -8.4348 O   0  0  0  0  0  0  0  0  0  0  0  0
   46.5954  -40.0118  -11.2350 C   0  0  0  0  0  0  0  0  0  0  0  0
   47.1516  -39.7261  -12.6372 C   0  0  0  0  0  0  0  0  0  0  0  0
   47.7262  -40.9624  -13.3355 C   0  0  0  0  0  0  0  0  0  0  0  0
   46.7578  -41.5825  -14.3429 C   0  0  0  0  0  0  0  0  0  0  0  0
   47.2717  -42.8764  -14.8525 N   0  0  0  0  0  4  0  0  0  0  0  0
   45.3352  -39.3130   -8.1207 N   0  0  0  0  0  0  0  0  0  0  0  0
   44.5912  -38.1949   -7.5671 C   0  0  0  0  0  0  0  0  0  0  0  0
   44.4512  -38.1652   -6.0695 C   0  0  0  0  0  0  0  0  0  0  0  0
   45.3279  -38.8597   -5.2275 C   0  0  0  0  0  0  0  0  0  0  0  0
   45.1372  -38.8464   -3.8372 C   0  0  0  0  0  0  0  0  0  0  0  0
   44.0779  -38.1189   -3.2794 C   0  0  0  0  0  0  0  0  0  0  0  0
   43.8642  -38.0985   -1.7989 C   0  0  0  0  0  0  0  0  0  0  0  0
   42.7559  -37.5020   -1.2703 N   0  0  0  0  0  0  0  0  0  0  0  0
   44.7641  -38.6262   -1.0365 N   0  0  0  0  0  0  0  0  0  0  0  0
   43.2092  -37.4176   -4.1164 C   0  0  0  0  0  0  0  0  0  0  0  0
   43.3864  -37.4514   -5.4978 C   0  0  0  0  0  0  0  0  0  0  0  0
   54.8142  -38.6447   -1.4774 H   0  0  0  0  0  0  0  0  0  0  0  0
   52.0408  -42.3453   -8.4275 H   0  0  0  0  0  0  0  0  0  0  0  0
   50.8895  -32.7224   -3.2503 H   0  0  0  0  0  0  0  0  0  0  0  0
   45.0659  -39.5369   -1.3947 H   0  0  0  0  0  0  0  0  0  0  0  0
  2  1  1  6
  3  2  1  0
  2  5  1  0
  3  4  2  0
 16  3  1  0
  5  6  1  0
  6  7  2  0
  6  9  1  0
  7  8  1  0
  8 11  2  0
  9 10  2  0
  9 12  1  0
 10 11  1  0
 10 15  1  0
 12 13  2  0
 13 14  1  0
 15 14  2  0
 17 16  1  0
 18 17  1  0
 17 20  1  1
 18 19  2  0
 27 18  1  0
 20 21  1  0
 21 22  1  0
 22 23  1  0
 23 24  1  0
 24 25  2  0
 24 26  1  0
 28 27  1  0
 29 28  1  0
 28 31  1  1
 29 30  2  0
 38 29  1  0
 31 32  1  0
 32 33  1  0
 33 34  1  0
 34 35  1  0
 35 36  2  0
 35 37  1  0
 39 38  1  0
 40 39  1  0
 39 42  1  1
 40 41  2  0
 50 40  1  0
 42 43  1  0
 43 44  1  0
 44 45  1  0
 45 46  1  0
 46 47  1  0
 46 48  2  0
 49 51  2  0
 52 49  1  0
 49 58  1  0
 52 50  1  0
 52 53  1  6
 56 53  1  0
 54 55  1  0
 54 56  1  0
 55 57  1  0
 58 59  1  0
 59 60  1  0
 59 62  1  6
 60 61  2  0
 60 67  1  0
 62 63  1  0
 63 64  1  0
 64 65  1  0
 65 66  1  0
 67 68  1  0
 68 69  1  0
 69 70  2  0
 69 77  1  0
 70 71  1  0
 71 72  2  0
 72 73  1  0
 72 76  1  0
 73 74  1  0
 73 75  2  0
 76 77  2  0
 25 78  1  0
 36 79  1  0
 48 80  1  0
 75 81  1  0
M  CHG  3   1   1  57   1  66   1
M  END
$$$$
