
     RDKit          3D

 81 83  0  0  0  0  0  0  0  0999 V2000
   58.2381  -32.6686   -2.6592 N   0  0  0  0  0  4  0  0  0  0  0  0
   57.8686  -33.6466   -1.5691 C   0  0  2  0  0  0  0  0  0  0  0  0
   56.4981  -34.2857   -1.9212 C   0  0  0  0  0  0  0  0  0  0  0  0
   55.8571  -34.8238   -1.0152 O   0  0  0  0  0  0  0  0  0  0  0  0
   57.9659  -32.9963   -0.1793 C   0  0  0  0  0  0  0  0  0  0  0  0
   57.1015  -33.6037    0.9083 C   0  0  0  0  0  0  0  0  0  0  0  0
   57.0648  -32.9398    2.1470 C   0  0  0  0  0  0  0  0  0  0  0  0
   56.3213  -33.4420    3.2092 C   0  0  0  0  0  0  0  0  0  0  0  0
   56.3359  -34.7978    0.7310 C   0  0  0  0  0  0  0  0  0  0  0  0
   55.5832  -35.2909    1.8297 C   0  0  0  0  0  0  0  0  0  0  0  0
   55.5949  -34.6139    3.0551 C   0  0  0  0  0  0  0  0  0  0  0  0
   56.2638  -35.5315   -0.4776 C   0  0  0  0  0  0  0  0  0  0  0  0
   55.4996  -36.6980   -0.5842 C   0  0  0  0  0  0  0  0  0  0  0  0
   54.7827  -37.1648    0.5046 C   0  0  0  0  0  0  0  0  0  0  0  0
   54.8198  -36.4601    1.7043 C   0  0  0  0  0  0  0  0  0  0  0  0
   56.0399  -34.1148   -3.1986 N   0  0  0  0  0  0  0  0  0  0  0  0
   54.6701  -33.6363   -3.4671 C   0  0  2  0  0  0  0  0  0  0  0  0
   54.3847  -33.7058   -4.9980 C   0  0  0  0  0  0  0  0  0  0  0  0
   55.2857  -33.6441   -5.8376 O   0  0  0  0  0  0  0  0  0  0  0  0
   54.5517  -32.2154   -2.8781 C   0  0  0  0  0  0  0  0  0  0  0  0
   53.1545  -31.5608   -2.9205 C   0  0  0  0  0  0  0  0  0  0  0  0
   52.1271  -32.3286   -3.7576 C   0  0  0  0  0  0  0  0  0  0  0  0
   52.6776  -32.6206   -5.0827 N   0  0  0  0  0  0  0  0  0  0  0  0
   51.9073  -32.3991   -6.1799 C   0  0  0  0  0  0  0  0  0  0  0  0
   50.6426  -32.2145   -6.1523 N   0  0  0  0  0  0  0  0  0  0  0  0
   52.6526  -32.4411   -7.3036 N   0  0  0  0  0  0  0  0  0  0  0  0
   53.0636  -33.9182   -5.3571 N   0  0  0  0  0  0  0  0  0  0  0  0
   52.4122  -35.1947   -5.0474 C   0  0  2  0  0  0  0  0  0  0  0  0
   50.8943  -35.0306   -5.3245 C   0  0  0  0  0  0  0  0  0  0  0  0
   50.2326  -34.1522   -4.7772 O   0  0  0  0  0  0  0  0  0  0  0  0
   52.6959  -35.6126   -3.6001 C   0  0  0  0  0  0  0  0  0  0  0  0
   51.5827  -35.1977   -2.6228 C   0  0  0  0  0  0  0  0  0  0  0  0
   51.8562  -33.8904   -1.8703 C   0  0  0  0  0  0  0  0  0  0  0  0
   52.2939  -34.1449   -0.5154 N   0  0  0  0  0  0  0  0  0  0  0  0
   51.4614  -34.0786    0.5517 C   0  0  0  0  0  0  0  0  0  0  0  0
   51.0599  -33.0038    1.1382 N   0  0  0  0  0  0  0  0  0  0  0  0
   51.0497  -35.2994    0.9304 N   0  0  0  0  0  0  0  0  0  0  0  0
   50.3936  -35.9096   -6.2550 N   0  0  0  0  0  0  0  0  0  0  0  0
   49.3287  -35.6789   -7.2573 C   0  0  2  0  0  0  0  0  0  0  0  0
   48.7772  -37.0516   -7.7099 C   0  0  0  0  0  0  0  0  0  0  0  0
   49.4839  -38.0247   -7.9433 O   0  0  0  0  0  0  0  0  0  0  0  0
   49.6572  -34.7693   -8.4515 C   0  0  0  0  0  0  0  0  0  0  0  0
   51.0871  -34.2050   -8.4877 C   0  0  0  0  0  0  0  0  0  0  0  0
   52.0106  -35.1594   -9.2376 C   0  0  0  0  0  0  0  0  0  0  0  0
   51.9606  -34.9418  -10.6935 N   0  0  0  0  0  0  0  0  0  0  0  0
   52.8879  -35.5187  -11.5047 C   0  0  0  0  0  0  0  0  0  0  0  0
   53.7348  -34.6018  -11.9986 N   0  0  0  0  0  0  0  0  0  0  0  0
   52.9560  -36.7695  -11.7886 N   0  0  0  0  0  0  0  0  0  0  0  0
   46.6655  -38.5236   -9.4875 C   0  0  0  0  0  0  0  0  0  0  0  0
   47.4004  -37.1104   -7.7169 N   0  0  0  0  0  0  0  0  0  0  0  0
   45.9805  -37.8019  -10.2237 O   0  0  0  0  0  0  0  0  0  0  0  0
   46.6629  -38.3470   -7.9447 C   0  0  1  0  0  0  0  0  0  0  0  0
   45.2707  -38.2522   -7.3040 C   0  0  0  0  0  0  0  0  0  0  0  0
   45.7758  -38.9113   -4.8887 C   0  0  0  0  0  0  0  0  0  0  0  0
   44.5433  -39.5863   -4.2983 C   0  0  0  0  0  0  0  0  0  0  0  0
   45.3429  -37.8036   -5.8403 C   0  0  0  0  0  0  0  0  0  0  0  0
   44.9081  -40.2614   -3.0291 N   0  0  0  0  0  4  0  0  0  0  0  0
   47.5131  -39.4877   -9.9864 N   0  0  0  0  0  0  0  0  0  0  0  0
   47.5153  -39.7875  -11.4286 C   0  0  2  0  0  0  0  0  0  0  0  0
   46.1157  -40.3675  -11.7459 C   0  0  0  0  0  0  0  0  0  0  0  0
   45.4854  -40.9644  -10.8762 O   0  0  0  0  0  0  0  0  0  0  0  0
   48.6055  -40.8446  -11.6825 C   0  0  0  0  0  0  0  0  0  0  0  0
   49.5893  -41.1243  -10.5375 C   0  0  0  0  0  0  0  0  0  0  0  0
   51.0312  -41.3453  -11.0048 C   0  0  0  0  0  0  0  0  0  0  0  0
   51.3081  -42.7897  -11.4222 C   0  0  0  0  0  0  0  0  0  0  0  0
   51.4444  -43.6720  -10.2384 N   0  0  0  0  0  4  0  0  0  0  0  0
   45.6888  -40.1885  -13.0418 N   0  0  0  0  0  0  0  0  0  0  0  0
   44.4803  -40.8296  -13.5303 C   0  0  0  0  0  0  0  0  0  0  0  0
   43.2018  -40.0543  -13.3634 C   0  0  0  0  0  0  0  0  0  0  0  0
   42.5591  -39.9394  -12.1250 C   0  0  0  0  0  0  0  0  0  0  0  0
   41.3430  -39.2472  -12.0176 C   0  0  0  0  0  0  0  0  0  0  0  0
   40.7729  -38.6471  -13.1478 C   0  0  0  0  0  0  0  0  0  0  0  0
   39.4765  -37.9078  -13.0455 C   0  0  0  0  0  0  0  0  0  0  0  0
   38.8903  -37.3858  -14.1624 N   0  0  0  0  0  0  0  0  0  0  0  0
   38.9458  -37.7480  -11.8783 N   0  0  0  0  0  0  0  0  0  0  0  0
   41.4175  -38.7517  -14.3810 C   0  0  0  0  0  0  0  0  0  0  0  0
   42.6126  -39.4594  -14.4899 C   0  0  0  0  0  0  0  0  0  0  0  0
   50.3114  -32.1776   -5.1926 H   0  0  0  0  0  0  0  0  0  0  0  0
   50.5168  -33.3388    1.9411 H   0  0  0  0  0  0  0  0  0  0  0  0
   52.0652  -37.0520  -12.1955 H   0  0  0  0  0  0  0  0  0  0  0  0
   39.0531  -38.5891  -11.3039 H   0  0  0  0  0  0  0  0  0  0  0  0
  2  1  1  6
  3  2  1  0
  2  5  1  0
  3  4  2  0
 16  3  1  0
  5  6  1  0
  6  7  2  0
  6  9  1  0
  7  8  1  0
  8 11  2  0
  9 10  2  0
  9 12  1  0
 10 11  1  0
 10 15  1  0
 12 13  2  0
 13 14  1  0
 15 14  2  0
 17 16  1  0
 18 17  1  0
 17 20  1  6
 18 19  2  0
 27 18  1  0
 20 21  1  0
 21 22  1  0
 22 23  1  0
 23 24  1  0
 24 25  2  0
 24 26  1  0
 28 27  1  0
 29 28  1  0
 28 31  1  1
 29 30  2  0
 38 29  1  0
 31 32  1  0
 32 33  1  0
 33 34  1  0
 34 35  1  0
 35 36  2  0
 35 37  1  0
 39 38  1  0
 40 39  1  0
 39 42  1  6
 40 41  2  0
 50 40  1  0
 42 43  1  0
 43 44  1  0
 44 45  1  0
 45 46  1  0
 46 47  1  0
 46 48  2  0
 49 51  2  0
 52 49  1  0
 49 58  1  0
 52 50  1  0
 52 53  1  6
 56 53  1  0
 54 55  1  0
 54 56  1  0
 55 57  1  0
 58 59  1  0
 59 60  1  0
 59 62  1  1
 60 61  2  0
 60 67  1  0
 62 63  1  0
 63 64  1  0
 64 65  1  0
 65 66  1  0
 67 68  1  0
 68 69  1  0
 69 70  2  0
 69 77  1  0
 70 71  1  0
 71 72  2  0
 72 73  1  0
 72 76  1  0
 73 74  1  0
 73 75  2  0
 76 77  2  0
 25 78  1  0
 36 79  1  0
 48 80  1  0
 75 81  1  0
M  CHG  3   1   1  57   1  66   1
M  END
$$$$
