
     RDKit          3D

 81 83  0  0  0  0  0  0  0  0999 V2000
   52.0387  -33.9825   -0.9495 N   0  0  0  0  0  4  0  0  0  0  0  0
   52.0718  -32.5345   -1.3779 C   0  0  2  0  0  0  0  0  0  0  0  0
   53.2000  -32.3551   -2.4294 C   0  0  0  0  0  0  0  0  0  0  0  0
   53.4574  -31.2131   -2.8176 O   0  0  0  0  0  0  0  0  0  0  0  0
   52.1343  -31.5942   -0.1631 C   0  0  0  0  0  0  0  0  0  0  0  0
   53.4543  -31.5460    0.5814 C   0  0  0  0  0  0  0  0  0  0  0  0
   54.0785  -30.2922    0.7039 C   0  0  0  0  0  0  0  0  0  0  0  0
   55.3047  -30.1601    1.3458 C   0  0  0  0  0  0  0  0  0  0  0  0
   54.0779  -32.6975    1.1545 C   0  0  0  0  0  0  0  0  0  0  0  0
   55.3295  -32.5379    1.8064 C   0  0  0  0  0  0  0  0  0  0  0  0
   55.9304  -31.2758    1.8834 C   0  0  0  0  0  0  0  0  0  0  0  0
   53.5295  -34.0024    1.1282 C   0  0  0  0  0  0  0  0  0  0  0  0
   54.1943  -35.0902    1.7032 C   0  0  0  0  0  0  0  0  0  0  0  0
   55.4191  -34.9111    2.3241 C   0  0  0  0  0  0  0  0  0  0  0  0
   55.9806  -33.6389    2.3805 C   0  0  0  0  0  0  0  0  0  0  0  0
   53.9108  -33.4705   -2.7781 N   0  0  0  0  0  0  0  0  0  0  0  0
   54.8536  -33.4584   -3.9132 C   0  0  2  0  0  0  0  0  0  0  0  0
   54.1279  -32.9301   -5.1877 C   0  0  0  0  0  0  0  0  0  0  0  0
   54.4414  -31.8675   -5.7291 O   0  0  0  0  0  0  0  0  0  0  0  0
   55.4136  -34.8877   -4.0660 C   0  0  0  0  0  0  0  0  0  0  0  0
   56.6185  -35.2599   -3.1760 C   0  0  0  0  0  0  0  0  0  0  0  0
   56.5174  -34.7466   -1.7365 C   0  0  0  0  0  0  0  0  0  0  0  0
   57.6782  -35.1916   -0.9628 N   0  0  0  0  0  0  0  0  0  0  0  0
   57.4924  -36.0656    0.0607 C   0  0  0  0  0  0  0  0  0  0  0  0
   56.3509  -36.4071    0.5240 N   0  0  0  0  0  0  0  0  0  0  0  0
   58.6766  -36.4914    0.5468 N   0  0  0  0  0  0  0  0  0  0  0  0
   53.1590  -33.7646   -5.7207 N   0  0  0  0  0  0  0  0  0  0  0  0
   53.3092  -34.2936   -7.0798 C   0  0  2  0  0  0  0  0  0  0  0  0
   52.0855  -35.2019   -7.3717 C   0  0  0  0  0  0  0  0  0  0  0  0
   51.7720  -35.5084   -8.5191 O   0  0  0  0  0  0  0  0  0  0  0  0
   54.6374  -35.0446   -7.2272 C   0  0  0  0  0  0  0  0  0  0  0  0
   55.1388  -35.1047   -8.6802 C   0  0  0  0  0  0  0  0  0  0  0  0
   56.4259  -34.3129   -8.9386 C   0  0  0  0  0  0  0  0  0  0  0  0
   57.1067  -34.7876  -10.1233 N   0  0  0  0  0  0  0  0  0  0  0  0
   58.3002  -34.2944  -10.5335 C   0  0  0  0  0  0  0  0  0  0  0  0
   59.3441  -34.9848  -10.8406 N   0  0  0  0  0  0  0  0  0  0  0  0
   58.2727  -32.9551  -10.6268 N   0  0  0  0  0  0  0  0  0  0  0  0
   51.4397  -35.6553   -6.2462 N   0  0  0  0  0  0  0  0  0  0  0  0
   50.2370  -36.5141   -6.1600 C   0  0  2  0  0  0  0  0  0  0  0  0
   49.6161  -36.6298   -7.5723 C   0  0  0  0  0  0  0  0  0  0  0  0
   49.6799  -35.7452   -8.4174 O   0  0  0  0  0  0  0  0  0  0  0  0
   49.1846  -36.1641   -5.0964 C   0  0  0  0  0  0  0  0  0  0  0  0
   49.7361  -35.6830   -3.7441 C   0  0  0  0  0  0  0  0  0  0  0  0
   49.0675  -36.4426   -2.6029 C   0  0  0  0  0  0  0  0  0  0  0  0
   49.3138  -35.8034   -1.2990 N   0  0  0  0  0  0  0  0  0  0  0  0
   50.5719  -35.7621   -0.7829 C   0  0  0  0  0  0  0  0  0  0  0  0
   50.5697  -35.2406    0.4540 N   0  0  0  0  0  0  0  0  0  0  0  0
   51.6382  -36.1499   -1.3848 N   0  0  0  0  0  0  0  0  0  0  0  0
   46.8086  -37.8533   -8.5498 C   0  0  0  0  0  0  0  0  0  0  0  0
   49.0793  -37.8722   -7.8315 N   0  0  0  0  0  0  0  0  0  0  0  0
   46.5661  -37.3540   -7.4435 O   0  0  0  0  0  0  0  0  0  0  0  0
   48.2627  -38.1513   -9.0064 C   0  0  1  0  0  0  0  0  0  0  0  0
   48.5109  -39.5882   -9.4876 C   0  0  0  0  0  0  0  0  0  0  0  0
   48.3103  -41.1941  -11.4635 C   0  0  0  0  0  0  0  0  0  0  0  0
   47.7233  -41.3330  -12.8633 C   0  0  0  0  0  0  0  0  0  0  0  0
   47.9658  -39.8212  -10.9010 C   0  0  0  0  0  0  0  0  0  0  0  0
   47.1263  -40.0411  -13.2808 N   0  0  0  0  0  4  0  0  0  0  0  0
   45.8172  -38.1244   -9.4666 N   0  0  0  0  0  0  0  0  0  0  0  0
   45.6644  -37.2691  -10.6561 C   0  0  2  0  0  0  0  0  0  0  0  0
   44.4935  -37.8733  -11.4685 C   0  0  0  0  0  0  0  0  0  0  0  0
   44.6185  -38.0697  -12.6750 O   0  0  0  0  0  0  0  0  0  0  0  0
   46.9751  -37.3513  -11.4598 C   0  0  0  0  0  0  0  0  0  0  0  0
   47.1751  -36.3205  -12.5798 C   0  0  0  0  0  0  0  0  0  0  0  0
   46.9069  -34.8769  -12.1432 C   0  0  0  0  0  0  0  0  0  0  0  0
   47.7729  -33.8587  -12.8852 C   0  0  0  0  0  0  0  0  0  0  0  0
   46.9639  -33.0625  -13.8390 N   0  0  0  0  0  4  0  0  0  0  0  0
   43.3476  -38.1196  -10.7474 N   0  0  0  0  0  0  0  0  0  0  0  0
   43.0653  -37.4017   -9.5166 C   0  0  0  0  0  0  0  0  0  0  0  0
   43.0939  -38.2143   -8.2508 C   0  0  0  0  0  0  0  0  0  0  0  0
   42.6152  -37.7123   -7.0348 C   0  0  0  0  0  0  0  0  0  0  0  0
   42.7017  -38.4828   -5.8650 C   0  0  0  0  0  0  0  0  0  0  0  0
   43.2501  -39.7712   -5.9102 C   0  0  0  0  0  0  0  0  0  0  0  0
   43.3485  -40.6011   -4.6696 C   0  0  0  0  0  0  0  0  0  0  0  0
   44.0598  -41.7662   -4.6739 N   0  0  0  0  0  0  0  0  0  0  0  0
   42.7210  -40.2079   -3.6107 N   0  0  0  0  0  0  0  0  0  0  0  0
   43.7182  -40.2772   -7.1235 C   0  0  0  0  0  0  0  0  0  0  0  0
   43.6528  -39.5015   -8.2789 C   0  0  0  0  0  0  0  0  0  0  0  0
   55.6616  -35.6853    0.3337 H   0  0  0  0  0  0  0  0  0  0  0  0
   59.0343  -35.9600  -10.7725 H   0  0  0  0  0  0  0  0  0  0  0  0
   52.1711  -35.3230   -1.6515 H   0  0  0  0  0  0  0  0  0  0  0  0
   42.1953  -39.3473   -3.7894 H   0  0  0  0  0  0  0  0  0  0  0  0
  2  1  1  1
  3  2  1  0
  2  5  1  0
  3  4  2  0
 16  3  1  0
  5  6  1  0
  6  7  2  0
  6  9  1  0
  7  8  1  0
  8 11  2  0
  9 10  2  0
  9 12  1  0
 10 11  1  0
 10 15  1  0
 12 13  2  0
 13 14  1  0
 15 14  2  0
 17 16  1  0
 18 17  1  0
 17 20  1  6
 18 19  2  0
 27 18  1  0
 20 21  1  0
 21 22  1  0
 22 23  1  0
 23 24  1  0
 24 25  2  0
 24 26  1  0
 28 27  1  0
 29 28  1  0
 28 31  1  1
 29 30  2  0
 38 29  1  0
 31 32  1  0
 32 33  1  0
 33 34  1  0
 34 35  1  0
 35 36  2  0
 35 37  1  0
 39 38  1  0
 40 39  1  0
 39 42  1  1
 40 41  2  0
 50 40  1  0
 42 43  1  0
 43 44  1  0
 44 45  1  0
 45 46  1  0
 46 47  1  0
 46 48  2  0
 49 51  2  0
 52 49  1  0
 49 58  1  0
 52 50  1  0
 52 53  1  1
 56 53  1  0
 54 55  1  0
 54 56  1  0
 55 57  1  0
 58 59  1  0
 59 60  1  0
 59 62  1  6
 60 61  2  0
 60 67  1  0
 62 63  1  0
 63 64  1  0
 64 65  1  0
 65 66  1  0
 67 68  1  0
 68 69  1  0
 69 70  2  0
 69 77  1  0
 70 71  1  0
 71 72  2  0
 72 73  1  0
 72 76  1  0
 73 74  1  0
 73 75  2  0
 76 77  2  0
 25 78  1  0
 36 79  1  0
 48 80  1  0
 75 81  1  0
M  CHG  3   1   1  57   1  66   1
M  END
$$$$
