
     RDKit          3D

 24 27  0  0  0  0  0  0  0  0999 V2000
   76.0224    9.2885  -10.5690 C   0  0  0  0  0  0  0  0  0  0  0  0
   74.8226   11.0276  -11.6531 C   0  0  0  0  0  0  0  0  0  0  0  0
   75.8751   11.8883  -11.3804 C   0  0  0  0  0  0  0  0  0  0  0  0
   77.0057   11.4731  -10.7066 C   0  0  0  0  0  0  0  0  0  0  0  0
   77.0662   10.1548  -10.3022 C   0  0  0  0  0  0  0  0  0  0  0  0
   74.8897    9.7002  -11.2428 C   0  0  0  0  0  0  0  0  0  0  0  0
   73.7807    8.8036  -11.5331 C   0  0  0  0  0  0  0  0  0  0  0  0
   73.8048    7.6229  -12.2567 C   0  0  0  0  0  0  0  0  0  0  0  0
   72.6006    7.1383  -12.2745 O   0  0  0  0  0  0  0  0  0  0  0  0
   71.8024    7.9154  -11.6184 N   0  0  0  0  0  0  0  0  0  0  0  0
   72.4755    8.9848  -11.1228 C   0  0  0  0  0  0  0  0  0  0  0  0
   71.9321   10.1085  -10.3145 C   0  0  0  0  0  0  0  0  0  0  0  0
   75.0490    7.0849  -12.8700 C   0  0  0  0  0  0  0  0  0  0  0  0
   75.7719   13.1556  -11.7913 N   0  0  0  0  0  0  0  0  0  0  0  0
   76.7494   14.0842  -11.5747 C   0  0  0  0  0  0  0  0  0  0  0  0
   77.8764   13.6637  -10.9011 C   0  0  0  0  0  0  0  0  0  0  0  0
   78.0460   12.3759  -10.4518 C   0  0  0  0  0  0  0  0  0  0  0  0
   78.2409    9.7169   -9.6002 C   0  0  0  0  0  0  0  0  0  0  0  0
   78.3806    9.6113   -8.2338 C   0  0  0  0  0  0  0  0  0  0  0  0
   79.5919    9.1812   -8.0223 O   0  0  0  0  0  0  0  0  0  0  0  0
   80.2243    9.0081   -9.1456 N   0  0  0  0  0  0  0  0  0  0  0  0
   79.4286    9.3282  -10.1821 C   0  0  0  0  0  0  0  0  0  0  0  0
   79.7968    9.2603  -11.6224 C   0  0  0  0  0  0  0  0  0  0  0  0
   77.3598    9.9219   -7.1706 C   0  0  0  0  0  0  0  0  0  0  0  0
  1  5  2  0
  6  1  1  0
  2  3  1  0
  2  6  2  0
  3  4  2  0
  3 14  1  0
  4  5  1  0
  4 17  1  0
  5 18  1  0
  6  7  1  0
  7  8  2  0
  7 11  1  0
  8  9  1  0
  8 13  1  0
  9 10  1  0
 10 11  2  0
 11 12  1  0
 14 15  2  0
 15 16  1  0
 16 17  2  0
 18 19  2  0
 18 22  1  0
 19 20  1  0
 19 24  1  0
 20 21  1  0
 21 22  2  0
 22 23  1  0
M  END
$$$$
