
     RDKit          3D

 24 27  0  0  0  0  0  0  0  0999 V2000
   75.9171    9.5231  -10.0596 C   0  0  0  0  0  0  0  0  0  0  0  0
   74.7417   11.3935  -10.9309 C   0  0  0  0  0  0  0  0  0  0  0  0
   75.8949   12.1508  -10.7906 C   0  0  0  0  0  0  0  0  0  0  0  0
   77.0651   11.6178  -10.2895 C   0  0  0  0  0  0  0  0  0  0  0  0
   77.0614   10.2869   -9.9238 C   0  0  0  0  0  0  0  0  0  0  0  0
   74.7444   10.0529  -10.5605 C   0  0  0  0  0  0  0  0  0  0  0  0
   73.5298    9.2654  -10.7110 C   0  0  0  0  0  0  0  0  0  0  0  0
   73.0243    8.3037   -9.8519 C   0  0  0  0  0  0  0  0  0  0  0  0
   71.9221    7.8474  -10.3640 O   0  0  0  0  0  0  0  0  0  0  0  0
   71.6783    8.4406  -11.4865 N   0  0  0  0  0  0  0  0  0  0  0  0
   72.6482    9.3469  -11.7697 C   0  0  0  0  0  0  0  0  0  0  0  0
   72.7457   10.2358  -12.9579 C   0  0  0  0  0  0  0  0  0  0  0  0
   73.7029    7.9281   -8.5823 C   0  0  0  0  0  0  0  0  0  0  0  0
   75.8509   13.4348  -11.1579 N   0  0  0  0  0  0  0  0  0  0  0  0
   76.9286   14.2679  -11.0613 C   0  0  0  0  0  0  0  0  0  0  0  0
   78.0949   13.7299  -10.5601 C   0  0  0  0  0  0  0  0  0  0  0  0
   78.2076   12.4185  -10.1645 C   0  0  0  0  0  0  0  0  0  0  0  0
   78.2770    9.7266   -9.4015 C   0  0  0  0  0  0  0  0  0  0  0  0
   79.4208    9.4523  -10.1186 C   0  0  0  0  0  0  0  0  0  0  0  0
   80.2753    8.9575   -9.2689 O   0  0  0  0  0  0  0  0  0  0  0  0
   79.7605    8.8989   -8.0760 N   0  0  0  0  0  0  0  0  0  0  0  0
   78.5001    9.3693   -8.0889 C   0  0  0  0  0  0  0  0  0  0  0  0
   77.5881    9.4624   -6.9167 C   0  0  0  0  0  0  0  0  0  0  0  0
   79.6676    9.6683  -11.5888 C   0  0  0  0  0  0  0  0  0  0  0  0
  1  5  2  0
  6  1  1  0
  2  3  1  0
  2  6  2  0
  3  4  2  0
  3 14  1  0
  4  5  1  0
  4 17  1  0
  5 18  1  0
  6  7  1  0
  7  8  2  0
  7 11  1  0
  8  9  1  0
  8 13  1  0
  9 10  1  0
 10 11  2  0
 11 12  1  0
 14 15  2  0
 15 16  1  0
 16 17  2  0
 18 19  2  0
 18 22  1  0
 19 20  1  0
 19 24  1  0
 20 21  1  0
 21 22  2  0
 22 23  1  0
M  END
$$$$
