
     RDKit          3D

 24 27  0  0  0  0  0  0  0  0999 V2000
   78.2066   11.6918  -10.6791 C   0  0  0  0  0  0  0  0  0  0  0  0
   76.1183   12.3416  -11.6043 C   0  0  0  0  0  0  0  0  0  0  0  0
   75.5359   11.2390  -10.9976 C   0  0  0  0  0  0  0  0  0  0  0  0
   76.2658   10.3537  -10.2308 C   0  0  0  0  0  0  0  0  0  0  0  0
   77.6161   10.5956  -10.0785 C   0  0  0  0  0  0  0  0  0  0  0  0
   77.4796   12.5798  -11.4470 C   0  0  0  0  0  0  0  0  0  0  0  0
   78.0828   13.7393  -12.0872 C   0  0  0  0  0  0  0  0  0  0  0  0
   78.2800   15.0023  -11.5540 C   0  0  0  0  0  0  0  0  0  0  0  0
   78.8493   15.7364  -12.4608 O   0  0  0  0  0  0  0  0  0  0  0  0
   79.0342   15.0442  -13.5369 N   0  0  0  0  0  0  0  0  0  0  0  0
   78.5761   13.7768  -13.3756 C   0  0  0  0  0  0  0  0  0  0  0  0
   78.5978   12.6673  -14.3655 C   0  0  0  0  0  0  0  0  0  0  0  0
   77.8737   15.3585  -10.1678 C   0  0  0  0  0  0  0  0  0  0  0  0
   74.2254   11.0454  -11.1731 N   0  0  0  0  0  0  0  0  0  0  0  0
   73.5539    9.9925  -10.6207 C   0  0  0  0  0  0  0  0  0  0  0  0
   74.2882    9.1114   -9.8557 C   0  0  0  0  0  0  0  0  0  0  0  0
   75.6375    9.2522   -9.6356 C   0  0  0  0  0  0  0  0  0  0  0  0
   78.3811    9.6771   -9.2812 C   0  0  0  0  0  0  0  0  0  0  0  0
   79.4700    8.9456   -9.7018 C   0  0  0  0  0  0  0  0  0  0  0  0
   79.8604    8.2470   -8.6740 O   0  0  0  0  0  0  0  0  0  0  0  0
   79.1045    8.4807   -7.6417 N   0  0  0  0  0  0  0  0  0  0  0  0
   78.1499    9.3750   -7.9563 C   0  0  0  0  0  0  0  0  0  0  0  0
   77.0983    9.8923   -7.0393 C   0  0  0  0  0  0  0  0  0  0  0  0
   80.1067    8.9321  -11.0669 C   0  0  0  0  0  0  0  0  0  0  0  0
  1  5  2  0
  6  1  1  0
  2  3  1  0
  2  6  2  0
  3  4  2  0
  3 14  1  0
  4  5  1  0
  4 17  1  0
  5 18  1  0
  6  7  1  0
  7  8  2  0
  7 11  1  0
  8  9  1  0
  8 13  1  0
  9 10  1  0
 10 11  2  0
 11 12  1  0
 14 15  2  0
 15 16  1  0
 16 17  2  0
 18 19  2  0
 18 22  1  0
 19 20  1  0
 19 24  1  0
 20 21  1  0
 21 22  2  0
 22 23  1  0
M  END
$$$$
