
     RDKit          3D

 24 27  0  0  0  0  0  0  0  0999 V2000
   78.1467   11.1740  -10.5123 C   0  0  0  0  0  0  0  0  0  0  0  0
   75.9884   10.1836  -10.5324 C   0  0  0  0  0  0  0  0  0  0  0  0
   75.5001   11.3225  -11.1549 C   0  0  0  0  0  0  0  0  0  0  0  0
   76.3127   12.3942  -11.4642 C   0  0  0  0  0  0  0  0  0  0  0  0
   77.6497   12.3048  -11.1331 C   0  0  0  0  0  0  0  0  0  0  0  0
   77.3367   10.0997  -10.2013 C   0  0  0  0  0  0  0  0  0  0  0  0
   77.8409    8.9009   -9.5482 C   0  0  0  0  0  0  0  0  0  0  0  0
   78.8463    8.0521   -9.9807 C   0  0  0  0  0  0  0  0  0  0  0  0
   78.9797    7.1067   -9.1011 O   0  0  0  0  0  0  0  0  0  0  0  0
   78.1381    7.2807   -8.1352 N   0  0  0  0  0  0  0  0  0  0  0  0
   77.3873    8.3912   -8.3485 C   0  0  0  0  0  0  0  0  0  0  0  0
   76.3108    8.9430   -7.4837 C   0  0  0  0  0  0  0  0  0  0  0  0
   79.5880    8.2717  -11.2517 C   0  0  0  0  0  0  0  0  0  0  0  0
   74.1990   11.3639  -11.4564 N   0  0  0  0  0  0  0  0  0  0  0  0
   73.6166   12.4363  -12.0692 C   0  0  0  0  0  0  0  0  0  0  0  0
   74.4333   13.5039  -12.3757 C   0  0  0  0  0  0  0  0  0  0  0  0
   75.7782   13.5258  -12.0934 C   0  0  0  0  0  0  0  0  0  0  0  0
   78.5005   13.4177  -11.4527 C   0  0  0  0  0  0  0  0  0  0  0  0
   79.1263   13.6437  -12.6589 C   0  0  0  0  0  0  0  0  0  0  0  0
   79.7941   14.7538  -12.5221 O   0  0  0  0  0  0  0  0  0  0  0  0
   79.6383   15.2432  -11.3272 N   0  0  0  0  0  0  0  0  0  0  0  0
   78.8325   14.4485  -10.5998 C   0  0  0  0  0  0  0  0  0  0  0  0
   78.4203   14.6762   -9.1882 C   0  0  0  0  0  0  0  0  0  0  0  0
   79.0712   12.7988  -13.9048 C   0  0  0  0  0  0  0  0  0  0  0  0
  1  5  2  0
  6  1  1  0
  2  3  1  0
  2  6  2  0
  3  4  2  0
  3 14  1  0
  4  5  1  0
  4 17  1  0
  5 18  1  0
  6  7  1  0
  7  8  2  0
  7 11  1  0
  8  9  1  0
  8 13  1  0
  9 10  1  0
 10 11  2  0
 11 12  1  0
 14 15  2  0
 15 16  1  0
 16 17  2  0
 18 19  2  0
 18 22  1  0
 19 20  1  0
 19 24  1  0
 20 21  1  0
 21 22  2  0
 22 23  1  0
M  END
$$$$
