
     RDKit          3D

 24 27  0  0  0  0  0  0  0  0999 V2000
   78.2090   11.7088  -10.5835 C   0  0  0  0  0  0  0  0  0  0  0  0
   76.1357   12.4780  -11.4490 C   0  0  0  0  0  0  0  0  0  0  0  0
   75.5118   11.3975  -10.8437 C   0  0  0  0  0  0  0  0  0  0  0  0
   76.2131   10.4647  -10.1070 C   0  0  0  0  0  0  0  0  0  0  0  0
   77.5772   10.6351   -9.9840 C   0  0  0  0  0  0  0  0  0  0  0  0
   77.5107   12.6441  -11.3213 C   0  0  0  0  0  0  0  0  0  0  0  0
   78.1575   13.7808  -11.9598 C   0  0  0  0  0  0  0  0  0  0  0  0
   79.1131   13.7665  -12.9623 C   0  0  0  0  0  0  0  0  0  0  0  0
   79.4204   14.9965  -13.2416 O   0  0  0  0  0  0  0  0  0  0  0  0
   78.7368   15.8022  -12.4965 N   0  0  0  0  0  0  0  0  0  0  0  0
   77.9199   15.1078  -11.6642 C   0  0  0  0  0  0  0  0  0  0  0  0
   76.9741   15.6511  -10.6534 C   0  0  0  0  0  0  0  0  0  0  0  0
   79.6347   12.5047  -13.5534 C   0  0  0  0  0  0  0  0  0  0  0  0
   74.1894   11.2737  -10.9902 N   0  0  0  0  0  0  0  0  0  0  0  0
   73.4778   10.2483  -10.4363 C   0  0  0  0  0  0  0  0  0  0  0  0
   74.1836    9.3195   -9.7015 C   0  0  0  0  0  0  0  0  0  0  0  0
   75.5431    9.3880   -9.5121 C   0  0  0  0  0  0  0  0  0  0  0  0
   78.3125    9.6670   -9.2181 C   0  0  0  0  0  0  0  0  0  0  0  0
   78.1285    9.3742   -7.8847 C   0  0  0  0  0  0  0  0  0  0  0  0
   78.9950    8.4468   -7.5910 O   0  0  0  0  0  0  0  0  0  0  0  0
   79.7083    8.1336   -8.6324 N   0  0  0  0  0  0  0  0  0  0  0  0
   79.3290    8.8671   -9.6946 C   0  0  0  0  0  0  0  0  0  0  0  0
   79.9107    8.7935  -11.0623 C   0  0  0  0  0  0  0  0  0  0  0  0
   77.1356    9.9837   -6.9299 C   0  0  0  0  0  0  0  0  0  0  0  0
  1  5  2  0
  6  1  1  0
  2  3  1  0
  2  6  2  0
  3  4  2  0
  3 14  1  0
  4  5  1  0
  4 17  1  0
  5 18  1  0
  6  7  1  0
  7  8  2  0
  7 11  1  0
  8  9  1  0
  8 13  1  0
  9 10  1  0
 10 11  2  0
 11 12  1  0
 14 15  2  0
 15 16  1  0
 16 17  2  0
 18 19  2  0
 18 22  1  0
 19 20  1  0
 19 24  1  0
 20 21  1  0
 21 22  2  0
 22 23  1  0
M  END
$$$$
