
     RDKit          3D

 24 27  0  0  0  0  0  0  0  0999 V2000
   75.7726    9.5827  -10.4158 C   0  0  0  0  0  0  0  0  0  0  0  0
   74.8410   11.6152  -11.2159 C   0  0  0  0  0  0  0  0  0  0  0  0
   76.0650   12.2306  -11.0009 C   0  0  0  0  0  0  0  0  0  0  0  0
   77.1513   11.5450  -10.4965 C   0  0  0  0  0  0  0  0  0  0  0  0
   76.9886   10.2058  -10.2051 C   0  0  0  0  0  0  0  0  0  0  0  0
   74.6834   10.2652  -10.9202 C   0  0  0  0  0  0  0  0  0  0  0  0
   73.3955    9.6272  -11.1489 C   0  0  0  0  0  0  0  0  0  0  0  0
   72.7723    8.6616  -10.3759 C   0  0  0  0  0  0  0  0  0  0  0  0
   71.6392    8.3678  -10.9371 O   0  0  0  0  0  0  0  0  0  0  0  0
   71.4840    9.0694  -12.0120 N   0  0  0  0  0  0  0  0  0  0  0  0
   72.5507    9.8852  -12.2092 C   0  0  0  0  0  0  0  0  0  0  0  0
   72.7677   10.8482  -13.3215 C   0  0  0  0  0  0  0  0  0  0  0  0
   73.3795    8.1175   -9.1314 C   0  0  0  0  0  0  0  0  0  0  0  0
   76.1753   13.5288  -11.2977 N   0  0  0  0  0  0  0  0  0  0  0  0
   77.3341   14.2301  -11.1243 C   0  0  0  0  0  0  0  0  0  0  0  0
   78.4160   13.5401  -10.6202 C   0  0  0  0  0  0  0  0  0  0  0  0
   78.3700   12.2056  -10.2946 C   0  0  0  0  0  0  0  0  0  0  0  0
   78.1163    9.4870   -9.6797 C   0  0  0  0  0  0  0  0  0  0  0  0
   79.2256    9.0819  -10.3891 C   0  0  0  0  0  0  0  0  0  0  0  0
   79.9991    8.4684   -9.5392 O   0  0  0  0  0  0  0  0  0  0  0  0
   79.4651    8.4554   -8.3533 N   0  0  0  0  0  0  0  0  0  0  0  0
   78.2747    9.0820   -8.3716 C   0  0  0  0  0  0  0  0  0  0  0  0
   77.3662    9.2703   -7.2082 C   0  0  0  0  0  0  0  0  0  0  0  0
   79.5174    9.2897  -11.8521 C   0  0  0  0  0  0  0  0  0  0  0  0
  1  5  2  0
  6  1  1  0
  2  3  1  0
  2  6  2  0
  3  4  2  0
  3 14  1  0
  4  5  1  0
  4 17  1  0
  5 18  1  0
  6  7  1  0
  7  8  2  0
  7 11  1  0
  8  9  1  0
  8 13  1  0
  9 10  1  0
 10 11  2  0
 11 12  1  0
 14 15  2  0
 15 16  1  0
 16 17  2  0
 18 19  2  0
 18 22  1  0
 19 20  1  0
 19 24  1  0
 20 21  1  0
 21 22  2  0
 22 23  1  0
M  END
$$$$
