
     RDKit          3D

 24 27  0  0  0  0  0  0  0  0999 V2000
   78.0493   11.3350  -10.3556 C   0  0  0  0  0  0  0  0  0  0  0  0
   76.2794    9.9153   -9.6549 C   0  0  0  0  0  0  0  0  0  0  0  0
   75.3897   10.7302  -10.3387 C   0  0  0  0  0  0  0  0  0  0  0  0
   75.8054   11.8472  -11.0344 C   0  0  0  0  0  0  0  0  0  0  0  0
   77.1540   12.1408  -11.0341 C   0  0  0  0  0  0  0  0  0  0  0  0
   77.6372   10.2166   -9.6584 C   0  0  0  0  0  0  0  0  0  0  0  0
   78.5640    9.3561   -8.9382 C   0  0  0  0  0  0  0  0  0  0  0  0
   79.7088    8.7428   -9.4195 C   0  0  0  0  0  0  0  0  0  0  0  0
   80.2405    8.0659   -8.4477 O   0  0  0  0  0  0  0  0  0  0  0  0
   79.5269    8.1956   -7.3775 N   0  0  0  0  0  0  0  0  0  0  0  0
   78.4547    8.9944   -7.6108 C   0  0  0  0  0  0  0  0  0  0  0  0
   77.3917    9.3957   -6.6514 C   0  0  0  0  0  0  0  0  0  0  0  0
   80.1675    8.8953  -10.8266 C   0  0  0  0  0  0  0  0  0  0  0  0
   74.0936   10.4064  -10.3109 N   0  0  0  0  0  0  0  0  0  0  0  0
   73.1352   11.1399  -10.9497 C   0  0  0  0  0  0  0  0  0  0  0  0
   73.5563   12.2547  -11.6430 C   0  0  0  0  0  0  0  0  0  0  0  0
   74.8728   12.6433  -11.7118 C   0  0  0  0  0  0  0  0  0  0  0  0
   77.5925   13.3027  -11.7568 C   0  0  0  0  0  0  0  0  0  0  0  0
   78.0153   13.3344  -13.0674 C   0  0  0  0  0  0  0  0  0  0  0  0
   78.3194   14.5749  -13.3236 O   0  0  0  0  0  0  0  0  0  0  0  0
   78.1217   15.3249  -12.2796 N   0  0  0  0  0  0  0  0  0  0  0  0
   77.6625   14.5845  -11.2544 C   0  0  0  0  0  0  0  0  0  0  0  0
   77.3202   15.0865   -9.8960 C   0  0  0  0  0  0  0  0  0  0  0  0
   78.1178   12.1860  -14.0367 C   0  0  0  0  0  0  0  0  0  0  0  0
  1  5  2  0
  6  1  1  0
  2  3  1  0
  2  6  2  0
  3  4  2  0
  3 14  1  0
  4  5  1  0
  4 17  1  0
  5 18  1  0
  6  7  1  0
  7  8  2  0
  7 11  1  0
  8  9  1  0
  8 13  1  0
  9 10  1  0
 10 11  2  0
 11 12  1  0
 14 15  2  0
 15 16  1  0
 16 17  2  0
 18 19  2  0
 18 22  1  0
 19 20  1  0
 19 24  1  0
 20 21  1  0
 21 22  2  0
 22 23  1  0
M  END
$$$$
