
     RDKit          3D

 24 27  0  0  0  0  0  0  0  0999 V2000
   77.9133   11.2993  -10.5794 C   0  0  0  0  0  0  0  0  0  0  0  0
   76.0687    9.9593   -9.9153 C   0  0  0  0  0  0  0  0  0  0  0  0
   75.2349   10.7889  -10.6498 C   0  0  0  0  0  0  0  0  0  0  0  0
   75.7159   11.8743  -11.3535 C   0  0  0  0  0  0  0  0  0  0  0  0
   77.0733   12.1202  -11.3086 C   0  0  0  0  0  0  0  0  0  0  0  0
   77.4357   10.2124   -9.8741 C   0  0  0  0  0  0  0  0  0  0  0  0
   78.3036    9.3368   -9.1008 C   0  0  0  0  0  0  0  0  0  0  0  0
   79.4137    8.6329   -9.5376 C   0  0  0  0  0  0  0  0  0  0  0  0
   79.8962    7.9765   -8.5268 O   0  0  0  0  0  0  0  0  0  0  0  0
   79.1829    8.2030   -7.4725 N   0  0  0  0  0  0  0  0  0  0  0  0
   78.1622    9.0508   -7.7581 C   0  0  0  0  0  0  0  0  0  0  0  0
   77.1173    9.5631   -6.8322 C   0  0  0  0  0  0  0  0  0  0  0  0
   79.8921    8.6855  -10.9454 C   0  0  0  0  0  0  0  0  0  0  0  0
   73.9278   10.5117  -10.6638 N   0  0  0  0  0  0  0  0  0  0  0  0
   73.0207   11.2635  -11.3542 C   0  0  0  0  0  0  0  0  0  0  0  0
   73.5070   12.3465  -12.0553 C   0  0  0  0  0  0  0  0  0  0  0  0
   74.8383   12.6868  -12.0827 C   0  0  0  0  0  0  0  0  0  0  0  0
   77.5798   13.2489  -12.0393 C   0  0  0  0  0  0  0  0  0  0  0  0
   78.2654   13.2044  -13.2334 C   0  0  0  0  0  0  0  0  0  0  0  0
   78.5379   14.4395  -13.5448 O   0  0  0  0  0  0  0  0  0  0  0  0
   78.0788   15.2563  -12.6428 N   0  0  0  0  0  0  0  0  0  0  0  0
   77.4622   14.5700  -11.6636 C   0  0  0  0  0  0  0  0  0  0  0  0
   76.8117   15.1551  -10.4599 C   0  0  0  0  0  0  0  0  0  0  0  0
   78.6409   11.9904  -14.0422 C   0  0  0  0  0  0  0  0  0  0  0  0
  1  5  2  0
  6  1  1  0
  2  3  1  0
  2  6  2  0
  3  4  2  0
  3 14  1  0
  4  5  1  0
  4 17  1  0
  5 18  1  0
  6  7  1  0
  7  8  2  0
  7 11  1  0
  8  9  1  0
  8 13  1  0
  9 10  1  0
 10 11  2  0
 11 12  1  0
 14 15  2  0
 15 16  1  0
 16 17  2  0
 18 19  2  0
 18 22  1  0
 19 20  1  0
 19 24  1  0
 20 21  1  0
 21 22  2  0
 22 23  1  0
M  END
$$$$
