
     RDKit          3D

 24 27  0  0  0  0  0  0  0  0999 V2000
   77.9753   11.4493  -10.3255 C   0  0  0  0  0  0  0  0  0  0  0  0
   76.3044    9.7772  -10.5523 C   0  0  0  0  0  0  0  0  0  0  0  0
   75.5052   10.7015  -11.2080 C   0  0  0  0  0  0  0  0  0  0  0  0
   75.9184   11.9989  -11.4325 C   0  0  0  0  0  0  0  0  0  0  0  0
   77.1706   12.3630  -10.9803 C   0  0  0  0  0  0  0  0  0  0  0  0
   77.5653   10.1503  -10.0990 C   0  0  0  0  0  0  0  0  0  0  0  0
   78.3976    9.1740   -9.4118 C   0  0  0  0  0  0  0  0  0  0  0  0
   78.3198    8.7655   -8.0907 C   0  0  0  0  0  0  0  0  0  0  0  0
   79.2479    7.8805   -7.8888 O   0  0  0  0  0  0  0  0  0  0  0  0
   79.9177    7.6872   -8.9776 N   0  0  0  0  0  0  0  0  0  0  0  0
   79.4387    8.4677   -9.9794 C   0  0  0  0  0  0  0  0  0  0  0  0
   79.9242    8.5490  -11.3826 C   0  0  0  0  0  0  0  0  0  0  0  0
   77.3093    9.3080   -7.1430 C   0  0  0  0  0  0  0  0  0  0  0  0
   74.3006   10.3035  -11.6278 N   0  0  0  0  0  0  0  0  0  0  0  0
   73.4358   11.1326  -12.2830 C   0  0  0  0  0  0  0  0  0  0  0  0
   73.8539   12.4276  -12.5044 C   0  0  0  0  0  0  0  0  0  0  0  0
   75.0790   12.9007  -12.0992 C   0  0  0  0  0  0  0  0  0  0  0  0
   77.6060   13.7127  -11.2113 C   0  0  0  0  0  0  0  0  0  0  0  0
   78.4516   14.1348  -12.2135 C   0  0  0  0  0  0  0  0  0  0  0  0
   78.5837   15.4220  -12.0624 O   0  0  0  0  0  0  0  0  0  0  0  0
   77.8892   15.8423  -11.0463 N   0  0  0  0  0  0  0  0  0  0  0  0
   77.2471   14.8137  -10.4635 C   0  0  0  0  0  0  0  0  0  0  0  0
   76.3563   14.8981   -9.2745 C   0  0  0  0  0  0  0  0  0  0  0  0
   79.1086   13.3034  -13.2840 C   0  0  0  0  0  0  0  0  0  0  0  0
  1  5  2  0
  6  1  1  0
  2  3  1  0
  2  6  2  0
  3  4  2  0
  3 14  1  0
  4  5  1  0
  4 17  1  0
  5 18  1  0
  6  7  1  0
  7  8  2  0
  7 11  1  0
  8  9  1  0
  8 13  1  0
  9 10  1  0
 10 11  2  0
 11 12  1  0
 14 15  2  0
 15 16  1  0
 16 17  2  0
 18 19  2  0
 18 22  1  0
 19 20  1  0
 19 24  1  0
 20 21  1  0
 21 22  2  0
 22 23  1  0
M  END
$$$$
