
     RDKit          3D

 24 27  0  0  0  0  0  0  0  0999 V2000
   75.8928    9.4626  -10.5120 C   0  0  0  0  0  0  0  0  0  0  0  0
   74.9821   11.3270  -11.6670 C   0  0  0  0  0  0  0  0  0  0  0  0
   76.1878   11.9899  -11.4942 C   0  0  0  0  0  0  0  0  0  0  0  0
   77.2545   11.4116  -10.8368 C   0  0  0  0  0  0  0  0  0  0  0  0
   77.0906   10.1323  -10.3452 C   0  0  0  0  0  0  0  0  0  0  0  0
   74.8233   10.0379  -11.1692 C   0  0  0  0  0  0  0  0  0  0  0  0
   73.5547    9.3493  -11.3549 C   0  0  0  0  0  0  0  0  0  0  0  0
   73.3430    8.0584  -11.8097 C   0  0  0  0  0  0  0  0  0  0  0  0
   72.0629    7.8427  -11.8244 O   0  0  0  0  0  0  0  0  0  0  0  0
   71.4334    8.8948  -11.4141 N   0  0  0  0  0  0  0  0  0  0  0  0
   72.3081    9.8842  -11.1006 C   0  0  0  0  0  0  0  0  0  0  0  0
   71.9981   11.2476  -10.5939 C   0  0  0  0  0  0  0  0  0  0  0  0
   74.4585    7.1510  -12.1918 C   0  0  0  0  0  0  0  0  0  0  0  0
   76.2999   13.2269  -11.9872 N   0  0  0  0  0  0  0  0  0  0  0  0
   77.4417   13.9670  -11.8722 C   0  0  0  0  0  0  0  0  0  0  0  0
   78.5040   13.3841  -11.2145 C   0  0  0  0  0  0  0  0  0  0  0  0
   78.4550   12.1170  -10.6844 C   0  0  0  0  0  0  0  0  0  0  0  0
   78.1980    9.5252   -9.6599 C   0  0  0  0  0  0  0  0  0  0  0  0
   78.2821    9.2796   -8.3070 C   0  0  0  0  0  0  0  0  0  0  0  0
   79.4428    8.7228   -8.1079 O   0  0  0  0  0  0  0  0  0  0  0  0
   80.0945    8.5988   -9.2266 N   0  0  0  0  0  0  0  0  0  0  0  0
   79.3653    9.0859  -10.2469 C   0  0  0  0  0  0  0  0  0  0  0  0
   79.7740    9.1200  -11.6774 C   0  0  0  0  0  0  0  0  0  0  0  0
   77.2579    9.5810   -7.2444 C   0  0  0  0  0  0  0  0  0  0  0  0
  1  5  2  0
  6  1  1  0
  2  3  1  0
  2  6  2  0
  3  4  2  0
  3 14  1  0
  4  5  1  0
  4 17  1  0
  5 18  1  0
  6  7  1  0
  7  8  2  0
  7 11  1  0
  8  9  1  0
  8 13  1  0
  9 10  1  0
 10 11  2  0
 11 12  1  0
 14 15  2  0
 15 16  1  0
 16 17  2  0
 18 19  2  0
 18 22  1  0
 19 20  1  0
 19 24  1  0
 20 21  1  0
 21 22  2  0
 22 23  1  0
M  END
$$$$
