
     RDKit          3D

 27 29  0  0  0  0  0  0  0  0999 V2000
   15.4367   31.9838  -12.7122 C   0  0  0  0  0  0  0  0  0  0  0  0
   13.6387   33.4406  -11.9664 C   0  0  0  0  0  0  0  0  0  0  0  0
   13.1313   31.0950  -12.6054 C   0  0  1  0  0  0  0  0  0  0  0  0
   10.8143   31.1121  -13.5794 C   0  0  0  0  0  0  0  0  0  0  0  0
   12.2025   29.0309  -13.4948 C   0  0  0  0  0  0  0  0  0  0  0  0
   13.3644   30.0239  -13.6270 C   0  0  0  0  0  0  0  0  0  0  0  0
    9.0986   28.1495  -14.7505 C   0  0  0  0  0  0  0  0  0  0  0  0
    8.0554   27.1988  -14.4166 C   0  0  0  0  0  0  0  0  0  0  0  0
    7.9087   26.8149  -13.1029 C   0  0  0  0  0  0  0  0  0  0  0  0
    6.1006   25.3806  -13.6043 C   0  0  0  0  0  0  0  0  0  0  0  0
    5.1326   24.4816  -13.2096 C   0  0  0  0  0  0  0  0  0  0  0  0
    4.2361   23.8986  -14.1078 C   0  0  0  0  0  0  0  0  0  0  0  0
    3.5195   21.7913  -13.0009 C   0  0  1  0  0  0  0  0  0  0  0  0
    4.3639   24.2677  -15.4275 C   0  0  0  0  0  0  0  0  0  0  0  0
    5.3463   25.1804  -15.8298 C   0  0  0  0  0  0  0  0  0  0  0  0
    6.2236   25.7469  -14.9307 C   0  0  0  0  0  0  0  0  0  0  0  0
    7.1968   26.6500  -15.3243 C   0  0  0  0  0  0  0  0  0  0  0  0
   13.9935   32.3268  -12.8910 C   0  0  2  0  0  0  0  0  0  0  0  0
   13.7894   32.6580  -14.2432 O   0  0  0  0  0  0  0  0  0  0  0  0
   11.6919   31.4368  -12.4092 C   0  0  0  0  0  0  0  0  0  0  0  0
   10.9791   29.7220  -14.1032 C   0  0  1  0  0  0  0  0  0  0  0  0
    9.8524   28.8637  -13.7882 N   0  0  0  0  0  0  0  0  0  0  0  0
    9.3730   28.3742  -15.9551 O   0  0  0  0  0  0  0  0  0  0  0  0
    6.9635   25.9383  -12.7230 N   0  0  0  0  0  0  0  0  0  0  0  0
    3.2974   23.0062  -13.6204 O   0  0  0  0  0  0  0  0  0  0  0  0
    2.3700   21.1931  -12.5231 F   0  0  0  0  0  0  0  0  0  0  0  0
    4.0211   20.9165  -13.9761 F   0  0  0  0  0  0  0  0  0  0  0  0
 18  1  1  6
 18  2  1  0
  3  6  1  6
  3 18  1  0
 20  3  1  0
  4 20  1  0
 21  4  1  0
  5  6  1  0
 21  5  1  0
  7  8  1  0
 22  7  1  0
  7 23  2  0
  8  9  2  0
  8 17  1  0
  9 24  1  0
 10 11  1  0
 16 10  1  0
 24 10  2  0
 11 12  2  0
 14 12  1  0
 12 25  1  0
 25 13  1  0
 13 26  1  6
 13 27  1  0
 15 14  2  0
 16 15  1  0
 17 16  2  0
 18 19  1  0
 21 22  1  1
M  END
$$$$
