
     RDKit          3D

 27 29  0  0  0  0  0  0  0  0999 V2000
   15.5668   31.8741  -13.4718 C   0  0  0  0  0  0  0  0  0  0  0  0
   13.7341   33.3510  -12.8624 C   0  0  0  0  0  0  0  0  0  0  0  0
   13.2678   30.9674  -13.3807 C   0  0  1  0  0  0  0  0  0  0  0  0
   10.8559   31.0831  -14.0787 C   0  0  0  0  0  0  0  0  0  0  0  0
   12.1848   28.9683  -14.2440 C   0  0  0  0  0  0  0  0  0  0  0  0
   13.3517   29.9389  -14.4672 C   0  0  0  0  0  0  0  0  0  0  0  0
    9.4554   27.6586  -14.9107 C   0  0  0  0  0  0  0  0  0  0  0  0
    8.3032   26.8588  -14.5415 C   0  0  0  0  0  0  0  0  0  0  0  0
    8.0724   26.6112  -13.2073 C   0  0  0  0  0  0  0  0  0  0  0  0
    6.1340   25.3402  -13.6608 C   0  0  0  0  0  0  0  0  0  0  0  0
    5.0603   24.5889  -13.2323 C   0  0  0  0  0  0  0  0  0  0  0  0
    4.1346   24.0280  -14.1147 C   0  0  0  0  0  0  0  0  0  0  0  0
    3.1331   22.3384  -12.5909 C   0  0  1  0  0  0  0  0  0  0  0  0
    4.3452   24.2624  -15.4545 C   0  0  0  0  0  0  0  0  0  0  0  0
    5.4350   25.0250  -15.8910 C   0  0  0  0  0  0  0  0  0  0  0  0
    6.3399   25.5719  -15.0072 C   0  0  0  0  0  0  0  0  0  0  0  0
    7.4192   26.3267  -15.4347 C   0  0  0  0  0  0  0  0  0  0  0  0
   14.1263   32.1905  -13.7113 C   0  0  2  0  0  0  0  0  0  0  0  0
   13.9589   32.4420  -15.0855 O   0  0  0  0  0  0  0  0  0  0  0  0
   11.8706   31.3335  -13.0051 C   0  0  0  0  0  0  0  0  0  0  0  0
   10.9200   29.7149  -14.6768 C   0  0  1  0  0  0  0  0  0  0  0  0
    9.8128   28.8697  -14.2706 N   0  0  0  0  0  0  0  0  0  0  0  0
   10.1995   27.2813  -15.8493 O   0  0  0  0  0  0  0  0  0  0  0  0
    7.0242   25.8783  -12.7945 N   0  0  0  0  0  0  0  0  0  0  0  0
    3.0876   23.2883  -13.5932 O   0  0  0  0  0  0  0  0  0  0  0  0
    1.9550   21.6335  -12.4398 F   0  0  0  0  0  0  0  0  0  0  0  0
    4.0943   21.3882  -12.9664 F   0  0  0  0  0  0  0  0  0  0  0  0
 18  1  1  6
 18  2  1  0
  3  6  1  6
  3 18  1  0
 20  3  1  0
  4 20  1  0
 21  4  1  0
  5  6  1  0
 21  5  1  0
  7  8  1  0
 22  7  1  0
  7 23  2  0
  8  9  2  0
  8 17  1  0
  9 24  1  0
 10 11  1  0
 16 10  1  0
 24 10  2  0
 11 12  2  0
 14 12  1  0
 12 25  1  0
 25 13  1  0
 13 26  1  6
 13 27  1  0
 15 14  2  0
 16 15  1  0
 17 16  2  0
 18 19  1  0
 21 22  1  1
M  END
$$$$
