
     RDKit          3D

 27 29  0  0  0  0  0  0  0  0999 V2000
  -14.2775   33.4707  -31.1110 C   0  0  0  0  0  0  0  0  0  0  0  0
  -15.2524   31.5528  -32.2435 C   0  0  0  0  0  0  0  0  0  0  0  0
  -12.8125   31.5946  -31.7820 C   0  0  1  0  0  0  0  0  0  0  0  0
  -12.6227   29.3397  -32.8760 C   0  0  0  0  0  0  0  0  0  0  0  0
  -10.6269   30.8017  -32.4952 C   0  0  0  0  0  0  0  0  0  0  0  0
  -11.6525   31.9292  -32.6696 C   0  0  0  0  0  0  0  0  0  0  0  0
   -9.5407   27.7610  -33.8298 C   0  0  0  0  0  0  0  0  0  0  0  0
   -8.3871   26.9590  -33.4698 C   0  0  0  0  0  0  0  0  0  0  0  0
   -8.2044   26.6227  -32.1476 C   0  0  0  0  0  0  0  0  0  0  0  0
   -6.2225   25.4233  -32.6077 C   0  0  0  0  0  0  0  0  0  0  0  0
   -5.1506   24.6642  -32.1884 C   0  0  0  0  0  0  0  0  0  0  0  0
   -4.1785   24.1843  -33.0685 C   0  0  0  0  0  0  0  0  0  0  0  0
   -2.4695   22.3812  -33.1602 C   0  0  1  0  0  0  0  0  0  0  0  0
   -4.3404   24.5082  -34.3964 C   0  0  0  0  0  0  0  0  0  0  0  0
   -5.4283   25.2789  -34.8236 C   0  0  0  0  0  0  0  0  0  0  0  0
   -6.3794   25.7450  -33.9421 C   0  0  0  0  0  0  0  0  0  0  0  0
   -7.4569   26.5077  -34.3604 C   0  0  0  0  0  0  0  0  0  0  0  0
  -14.0458   32.4227  -32.1505 C   0  0  2  0  0  0  0  0  0  0  0  0
  -13.7493   33.0712  -33.3634 O   0  0  0  0  0  0  0  0  0  0  0  0
  -13.1072   30.1338  -31.7015 C   0  0  0  0  0  0  0  0  0  0  0  0
  -11.1945   29.5896  -33.2389 C   0  0  1  0  0  0  0  0  0  0  0  0
  -10.3234   28.4812  -32.8955 N   0  0  0  0  0  0  0  0  0  0  0  0
   -9.8914   27.8413  -35.0330 O   0  0  0  0  0  0  0  0  0  0  0  0
   -7.1579   25.8824  -31.7437 N   0  0  0  0  0  0  0  0  0  0  0  0
   -3.1373   23.4297  -32.5569 O   0  0  0  0  0  0  0  0  0  0  0  0
   -3.1142   21.1663  -33.0346 F   0  0  0  0  0  0  0  0  0  0  0  0
   -2.4382   22.6497  -34.5367 F   0  0  0  0  0  0  0  0  0  0  0  0
 18  1  1  1
 18  2  1  0
  3  6  1  6
  3 18  1  0
 20  3  1  0
  4 20  1  0
 21  4  1  0
  5  6  1  0
 21  5  1  0
  7  8  1  0
 22  7  1  0
  7 23  2  0
  8  9  2  0
  8 17  1  0
  9 24  1  0
 10 11  1  0
 16 10  1  0
 24 10  2  0
 11 12  2  0
 14 12  1  0
 12 25  1  0
 25 13  1  0
 13 26  1  6
 13 27  1  0
 15 14  2  0
 16 15  1  0
 17 16  2  0
 18 19  1  0
 21 22  1  1
M  END
$$$$
