
     RDKit          3D

 27 29  0  0  0  0  0  0  0  0999 V2000
  -14.3609   33.7441  -34.3659 C   0  0  0  0  0  0  0  0  0  0  0  0
  -13.1987   34.3749  -32.3256 C   0  0  0  0  0  0  0  0  0  0  0  0
  -12.3057   32.5274  -33.7245 C   0  0  1  0  0  0  0  0  0  0  0  0
  -11.4065   30.6737  -32.2847 C   0  0  0  0  0  0  0  0  0  0  0  0
  -11.3990   30.5349  -34.7840 C   0  0  0  0  0  0  0  0  0  0  0  0
  -12.6572   31.4024  -34.6498 C   0  0  0  0  0  0  0  0  0  0  0  0
   -9.6747   27.8746  -32.9102 C   0  0  0  0  0  0  0  0  0  0  0  0
   -8.5086   27.0736  -33.2302 C   0  0  0  0  0  0  0  0  0  0  0  0
   -8.1842   26.8805  -34.5538 C   0  0  0  0  0  0  0  0  0  0  0  0
   -6.3000   25.5610  -34.0182 C   0  0  0  0  0  0  0  0  0  0  0  0
   -5.2073   24.8123  -34.4008 C   0  0  0  0  0  0  0  0  0  0  0  0
   -4.3555   24.1992  -33.4796 C   0  0  0  0  0  0  0  0  0  0  0  0
   -2.5218   22.5328  -33.2792 C   0  0  1  0  0  0  0  0  0  0  0  0
   -4.6604   24.3785  -32.1494 C   0  0  0  0  0  0  0  0  0  0  0  0
   -5.7696   25.1384  -31.7595 C   0  0  0  0  0  0  0  0  0  0  0  0
   -6.6007   25.7372  -32.6813 C   0  0  0  0  0  0  0  0  0  0  0  0
   -7.6989   26.4896  -32.2999 C   0  0  0  0  0  0  0  0  0  0  0  0
  -13.5631   33.2325  -33.2108 C   0  0  2  0  0  0  0  0  0  0  0  0
  -14.3317   32.2570  -32.5494 O   0  0  0  0  0  0  0  0  0  0  0  0
  -11.3799   32.1332  -32.6223 C   0  0  0  0  0  0  0  0  0  0  0  0
  -11.2669   29.7679  -33.4653 C   0  0  1  0  0  0  0  0  0  0  0  0
   -9.9727   29.1147  -33.5247 N   0  0  0  0  0  0  0  0  0  0  0  0
  -10.4867   27.4716  -32.0412 O   0  0  0  0  0  0  0  0  0  0  0  0
   -7.1178   26.1499  -34.9218 N   0  0  0  0  0  0  0  0  0  0  0  0
   -3.2826   23.4665  -33.9562 O   0  0  0  0  0  0  0  0  0  0  0  0
   -3.2692   21.5457  -32.6671 F   0  0  0  0  0  0  0  0  0  0  0  0
   -1.7351   21.8712  -34.2338 F   0  0  0  0  0  0  0  0  0  0  0  0
 18  1  1  6
 18  2  1  0
  3  6  1  1
  3 18  1  0
 20  3  1  0
  4 20  1  0
 21  4  1  0
  5  6  1  0
 21  5  1  0
  7  8  1  0
 22  7  1  0
  7 23  2  0
  8  9  2  0
  8 17  1  0
  9 24  1  0
 10 11  1  0
 16 10  1  0
 24 10  2  0
 11 12  2  0
 14 12  1  0
 12 25  1  0
 25 13  1  0
 13 26  1  6
 13 27  1  0
 15 14  2  0
 16 15  1  0
 17 16  2  0
 18 19  1  0
 21 22  1  6
M  END
$$$$
