
     RDKit          3D

 27 29  0  0  0  0  0  0  0  0999 V2000
   16.4572   31.2789  -14.9246 C   0  0  0  0  0  0  0  0  0  0  0  0
   14.4264   32.1552  -15.9342 C   0  0  0  0  0  0  0  0  0  0  0  0
   14.3513   30.0022  -14.6985 C   0  0  1  0  0  0  0  0  0  0  0  0
   11.8735   30.4232  -14.6693 C   0  0  0  0  0  0  0  0  0  0  0  0
   12.8273   28.1105  -14.5828 C   0  0  0  0  0  0  0  0  0  0  0  0
   13.9530   28.7449  -15.4098 C   0  0  0  0  0  0  0  0  0  0  0  0
    9.1904   28.5128  -14.1203 C   0  0  0  0  0  0  0  0  0  0  0  0
    8.3211   27.3626  -13.9624 C   0  0  0  0  0  0  0  0  0  0  0  0
    8.4010   26.6302  -12.7997 C   0  0  0  0  0  0  0  0  0  0  0  0
    6.7219   25.1233  -13.4983 C   0  0  0  0  0  0  0  0  0  0  0  0
    5.9288   24.0177  -13.2754 C   0  0  0  0  0  0  0  0  0  0  0  0
    4.9928   23.5631  -14.2067 C   0  0  0  0  0  0  0  0  0  0  0  0
    2.8976   22.3830  -13.5763 C   0  0  1  0  0  0  0  0  0  0  0  0
    4.8952   24.2801  -15.3774 C   0  0  0  0  0  0  0  0  0  0  0  0
    5.6999   25.4028  -15.6052 C   0  0  0  0  0  0  0  0  0  0  0  0
    6.6191   25.8387  -14.6757 C   0  0  0  0  0  0  0  0  0  0  0  0
    7.4170   26.9487  -14.8970 C   0  0  0  0  0  0  0  0  0  0  0  0
   15.1805   30.9116  -15.6083 C   0  0  2  0  0  0  0  0  0  0  0  0
   15.5009   30.1560  -16.7512 O   0  0  0  0  0  0  0  0  0  0  0  0
   13.2095   30.7197  -14.0592 C   0  0  0  0  0  0  0  0  0  0  0  0
   11.5818   28.9662  -14.8301 C   0  0  1  0  0  0  0  0  0  0  0  0
   10.5870   28.4835  -13.8905 N   0  0  0  0  0  0  0  0  0  0  0  0
    8.7059   29.6137  -14.4811 O   0  0  0  0  0  0  0  0  0  0  0  0
    7.6257   25.5532  -12.5869 N   0  0  0  0  0  0  0  0  0  0  0  0
    4.2404   22.4438  -13.8962 O   0  0  0  0  0  0  0  0  0  0  0  0
    2.4711   21.1223  -13.2075 F   0  0  0  0  0  0  0  0  0  0  0  0
    2.7060   23.1906  -12.4454 F   0  0  0  0  0  0  0  0  0  0  0  0
 18  1  1  1
 18  2  1  0
  3  6  1  6
  3 18  1  0
 20  3  1  0
  4 20  1  0
 21  4  1  0
  5  6  1  0
 21  5  1  0
  7  8  1  0
 22  7  1  0
  7 23  2  0
  8  9  2  0
  8 17  1  0
  9 24  1  0
 10 11  1  0
 16 10  1  0
 24 10  2  0
 11 12  2  0
 14 12  1  0
 12 25  1  0
 25 13  1  0
 13 26  1  1
 13 27  1  0
 15 14  2  0
 16 15  1  0
 17 16  2  0
 18 19  1  0
 21 22  1  1
M  END
$$$$
