
     RDKit          3D

 27 29  0  0  0  0  0  0  0  0999 V2000
   13.0251   33.6383  -15.9184 C   0  0  0  0  0  0  0  0  0  0  0  0
   13.9507   31.4928  -16.5903 C   0  0  0  0  0  0  0  0  0  0  0  0
   11.8415   31.5625  -15.2810 C   0  0  1  0  0  0  0  0  0  0  0  0
   11.7678   29.0532  -15.4057 C   0  0  0  0  0  0  0  0  0  0  0  0
   10.4294   30.3379  -13.7252 C   0  0  0  0  0  0  0  0  0  0  0  0
   11.6015   31.3229  -13.8214 C   0  0  0  0  0  0  0  0  0  0  0  0
    9.6554   26.9136  -13.4832 C   0  0  0  0  0  0  0  0  0  0  0  0
    8.4038   26.1854  -13.4023 C   0  0  0  0  0  0  0  0  0  0  0  0
    7.8613   25.9423  -12.1609 C   0  0  0  0  0  0  0  0  0  0  0  0
    6.0044   24.8000  -13.0694 C   0  0  0  0  0  0  0  0  0  0  0  0
    4.8184   24.1147  -12.9119 C   0  0  0  0  0  0  0  0  0  0  0  0
    4.0857   23.6205  -13.9931 C   0  0  0  0  0  0  0  0  0  0  0  0
    1.6871   23.4729  -13.3571 C   0  0  1  0  0  0  0  0  0  0  0  0
    4.6091   23.8518  -15.2449 C   0  0  0  0  0  0  0  0  0  0  0  0
    5.8132   24.5474  -15.4064 C   0  0  0  0  0  0  0  0  0  0  0  0
    6.5244   25.0289  -14.3287 C   0  0  0  0  0  0  0  0  0  0  0  0
    7.7158   25.7174  -14.4840 C   0  0  0  0  0  0  0  0  0  0  0  0
   13.2077   32.2109  -15.5163 C   0  0  2  0  0  0  0  0  0  0  0  0
   13.8828   32.1897  -14.2820 O   0  0  0  0  0  0  0  0  0  0  0  0
   11.6264   30.3558  -16.1324 C   0  0  0  0  0  0  0  0  0  0  0  0
   10.9857   28.9713  -14.1347 C   0  0  1  0  0  0  0  0  0  0  0  0
    9.8315   28.0981  -14.2384 N   0  0  0  0  0  0  0  0  0  0  0  0
   10.6606   26.4944  -12.8580 O   0  0  0  0  0  0  0  0  0  0  0  0
    6.7048   25.2738  -12.0124 N   0  0  0  0  0  0  0  0  0  0  0  0
    2.9053   22.9444  -13.7387 O   0  0  0  0  0  0  0  0  0  0  0  0
    1.1386   24.3329  -14.2882 F   0  0  0  0  0  0  0  0  0  0  0  0
    0.7860   22.4024  -13.2574 F   0  0  0  0  0  0  0  0  0  0  0  0
 18  1  1  6
 18  2  1  0
  3  6  1  1
  3 18  1  0
 20  3  1  0
  4 20  1  0
 21  4  1  0
  5  6  1  0
 21  5  1  0
  7  8  1  0
 22  7  1  0
  7 23  2  0
  8  9  2  0
  8 17  1  0
  9 24  1  0
 10 11  1  0
 16 10  1  0
 24 10  2  0
 11 12  2  0
 14 12  1  0
 12 25  1  0
 25 13  1  0
 13 26  1  6
 13 27  1  0
 15 14  2  0
 16 15  1  0
 17 16  2  0
 18 19  1  0
 21 22  1  6
M  END
$$$$
