
     RDKit          3D

 27 29  0  0  0  0  0  0  0  0999 V2000
  -16.2739   29.9029  -31.3326 C   0  0  0  0  0  0  0  0  0  0  0  0
  -14.9974   31.2239  -32.9253 C   0  0  0  0  0  0  0  0  0  0  0  0
  -13.8820   29.3833  -31.6861 C   0  0  1  0  0  0  0  0  0  0  0  0
  -12.1606   29.5800  -33.5069 C   0  0  0  0  0  0  0  0  0  0  0  0
  -11.5798   28.7566  -31.2155 C   0  0  0  0  0  0  0  0  0  0  0  0
  -12.7192   29.6930  -30.7932 C   0  0  0  0  0  0  0  0  0  0  0  0
   -8.7155   28.3756  -32.8888 C   0  0  0  0  0  0  0  0  0  0  0  0
   -7.8406   27.2190  -32.8684 C   0  0  0  0  0  0  0  0  0  0  0  0
   -7.2633   26.8497  -31.6746 C   0  0  0  0  0  0  0  0  0  0  0  0
   -6.1342   25.0213  -32.6545 C   0  0  0  0  0  0  0  0  0  0  0  0
   -5.2919   23.9342  -32.5557 C   0  0  0  0  0  0  0  0  0  0  0  0
   -4.9649   23.1338  -33.6522 C   0  0  0  0  0  0  0  0  0  0  0  0
   -2.7452   22.0147  -33.6645 C   0  0  1  0  0  0  0  0  0  0  0  0
   -5.5306   23.4840  -34.8570 C   0  0  0  0  0  0  0  0  0  0  0  0
   -6.3861   24.5875  -34.9589 C   0  0  0  0  0  0  0  0  0  0  0  0
   -6.6989   25.3677  -33.8669 C   0  0  0  0  0  0  0  0  0  0  0  0
   -7.5446   26.4600  -33.9632 C   0  0  0  0  0  0  0  0  0  0  0  0
  -14.9336   30.4937  -31.6276 C   0  0  2  0  0  0  0  0  0  0  0  0
  -14.5800   31.3287  -30.5518 O   0  0  0  0  0  0  0  0  0  0  0  0
  -13.4918   29.0376  -33.0845 C   0  0  0  0  0  0  0  0  0  0  0  0
  -11.0508   29.3009  -32.5454 C   0  0  1  0  0  0  0  0  0  0  0  0
  -10.1218   28.2984  -33.0325 N   0  0  0  0  0  0  0  0  0  0  0  0
   -8.2273   29.5269  -32.7746 O   0  0  0  0  0  0  0  0  0  0  0  0
   -6.4429   25.7892  -31.5833 N   0  0  0  0  0  0  0  0  0  0  0  0
   -4.1105   22.0625  -33.4581 O   0  0  0  0  0  0  0  0  0  0  0  0
   -2.0252   22.8245  -32.8082 F   0  0  0  0  0  0  0  0  0  0  0  0
   -2.3307   20.7049  -33.3806 F   0  0  0  0  0  0  0  0  0  0  0  0
 18  1  1  1
 18  2  1  0
  3  6  1  1
  3 18  1  0
 20  3  1  0
  4 20  1  0
 21  4  1  0
  5  6  1  0
 21  5  1  0
  7  8  1  0
 22  7  1  0
  7 23  2  0
  8  9  2  0
  8 17  1  0
  9 24  1  0
 10 11  1  0
 16 10  1  0
 24 10  2  0
 11 12  2  0
 14 12  1  0
 12 25  1  0
 25 13  1  0
 13 26  1  1
 13 27  1  0
 15 14  2  0
 16 15  1  0
 17 16  2  0
 18 19  1  0
 21 22  1  6
M  END
$$$$
