
     RDKit          3D

 27 29  0  0  0  0  0  0  0  0999 V2000
   13.9650   34.0316  -13.5209 C   0  0  0  0  0  0  0  0  0  0  0  0
   13.3956   33.1550  -15.7161 C   0  0  0  0  0  0  0  0  0  0  0  0
   12.4338   32.0966  -13.6857 C   0  0  1  0  0  0  0  0  0  0  0  0
   11.3661   30.3025  -15.0851 C   0  0  0  0  0  0  0  0  0  0  0  0
   11.5841   30.0930  -12.6003 C   0  0  0  0  0  0  0  0  0  0  0  0
   12.8436   30.9392  -12.8266 C   0  0  0  0  0  0  0  0  0  0  0  0
    9.5984   27.5804  -14.4603 C   0  0  0  0  0  0  0  0  0  0  0  0
    8.4758   26.7547  -14.0580 C   0  0  0  0  0  0  0  0  0  0  0  0
    8.2319   26.5825  -12.7143 C   0  0  0  0  0  0  0  0  0  0  0  0
    6.3598   25.1994  -13.1145 C   0  0  0  0  0  0  0  0  0  0  0  0
    5.3124   24.4294  -12.6550 C   0  0  0  0  0  0  0  0  0  0  0  0
    4.4284   23.7724  -13.5134 C   0  0  0  0  0  0  0  0  0  0  0  0
    2.6977   21.9882  -13.5455 C   0  0  1  0  0  0  0  0  0  0  0  0
    4.6528   23.9301  -14.8621 C   0  0  0  0  0  0  0  0  0  0  0  0
    5.7159   24.7116  -15.3302 C   0  0  0  0  0  0  0  0  0  0  0  0
    6.5797   25.3538  -14.4697 C   0  0  0  0  0  0  0  0  0  0  0  0
    7.6324   26.1276  -14.9284 C   0  0  0  0  0  0  0  0  0  0  0  0
   13.6543   32.7914  -14.2940 C   0  0  2  0  0  0  0  0  0  0  0  0
   14.7376   31.9054  -14.1488 O   0  0  0  0  0  0  0  0  0  0  0  0
   11.4026   31.7521  -14.7080 C   0  0  0  0  0  0  0  0  0  0  0  0
   11.3151   29.3664  -13.9210 C   0  0  1  0  0  0  0  0  0  0  0  0
   10.0177   28.7372  -13.7601 N   0  0  0  0  0  0  0  0  0  0  0  0
   10.2573   27.2777  -15.4855 O   0  0  0  0  0  0  0  0  0  0  0  0
    7.2095   25.8310  -12.2712 N   0  0  0  0  0  0  0  0  0  0  0  0
    3.4056   23.0211  -12.9615 O   0  0  0  0  0  0  0  0  0  0  0  0
    3.4879   20.9260  -13.9390 F   0  0  0  0  0  0  0  0  0  0  0  0
    1.8359   21.4730  -12.5657 F   0  0  0  0  0  0  0  0  0  0  0  0
 18  1  1  1
 18  2  1  0
  3  6  1  6
  3 18  1  0
 20  3  1  0
  4 20  1  0
 21  4  1  0
  5  6  1  0
 21  5  1  0
  7  8  1  0
 22  7  1  0
  7 23  2  0
  8  9  2  0
  8 17  1  0
  9 24  1  0
 10 11  1  0
 16 10  1  0
 24 10  2  0
 11 12  2  0
 14 12  1  0
 12 25  1  0
 25 13  1  0
 13 26  1  1
 13 27  1  0
 15 14  2  0
 16 15  1  0
 17 16  2  0
 18 19  1  0
 21 22  1  1
M  END
$$$$
