
     RDKit          3D

 27 29  0  0  0  0  0  0  0  0999 V2000
  -16.1042   30.0443  -32.0153 C   0  0  0  0  0  0  0  0  0  0  0  0
  -14.6971   31.9995  -32.3448 C   0  0  0  0  0  0  0  0  0  0  0  0
  -13.7775   30.0095  -31.1779 C   0  0  1  0  0  0  0  0  0  0  0  0
  -12.8415   28.8282  -33.1893 C   0  0  0  0  0  0  0  0  0  0  0  0
  -11.3658   29.8211  -31.4280 C   0  0  0  0  0  0  0  0  0  0  0  0
  -12.5217   30.8198  -31.2865 C   0  0  0  0  0  0  0  0  0  0  0  0
   -9.1406   28.3300  -33.3051 C   0  0  0  0  0  0  0  0  0  0  0  0
   -8.1255   27.3114  -33.1164 C   0  0  0  0  0  0  0  0  0  0  0  0
   -7.9813   26.7470  -31.8693 C   0  0  0  0  0  0  0  0  0  0  0  0
   -6.2232   25.3407  -32.5830 C   0  0  0  0  0  0  0  0  0  0  0  0
   -5.2811   24.3673  -32.3262 C   0  0  0  0  0  0  0  0  0  0  0  0
   -4.4102   23.8861  -33.3059 C   0  0  0  0  0  0  0  0  0  0  0  0
   -3.1325   21.7861  -33.6767 C   0  0  1  0  0  0  0  0  0  0  0  0
   -4.5359   24.4361  -34.5613 C   0  0  0  0  0  0  0  0  0  0  0  0
   -5.4921   25.4245  -34.8236 C   0  0  0  0  0  0  0  0  0  0  0  0
   -6.3445   25.8888  -33.8454 C   0  0  0  0  0  0  0  0  0  0  0  0
   -7.2915   26.8663  -34.1005 C   0  0  0  0  0  0  0  0  0  0  0  0
  -15.0157   30.8761  -31.4187 C   0  0  2  0  0  0  0  0  0  0  0  0
  -15.4499   31.3201  -30.1561 O   0  0  0  0  0  0  0  0  0  0  0  0
  -13.7714   28.7745  -32.0158 C   0  0  0  0  0  0  0  0  0  0  0  0
  -11.4528   29.2666  -32.8526 C   0  0  1  0  0  0  0  0  0  0  0  0
  -10.4908   28.1817  -32.9058 N   0  0  0  0  0  0  0  0  0  0  0  0
   -8.8354   29.4186  -33.8517 O   0  0  0  0  0  0  0  0  0  0  0  0
   -7.0615   25.7984  -31.6238 N   0  0  0  0  0  0  0  0  0  0  0  0
   -3.4964   22.9073  -32.9560 O   0  0  0  0  0  0  0  0  0  0  0  0
   -2.5422   20.8005  -32.9102 F   0  0  0  0  0  0  0  0  0  0  0  0
   -4.3127   21.2166  -34.1776 F   0  0  0  0  0  0  0  0  0  0  0  0
 18  1  1  6
 18  2  1  0
  3  6  1  6
  3 18  1  0
 20  3  1  0
  4 20  1  0
 21  4  1  0
  5  6  1  0
 21  5  1  0
  7  8  1  0
 22  7  1  0
  7 23  2  0
  8  9  2  0
  8 17  1  0
  9 24  1  0
 10 11  1  0
 16 10  1  0
 24 10  2  0
 11 12  2  0
 14 12  1  0
 12 25  1  0
 25 13  1  0
 13 26  1  1
 13 27  1  0
 15 14  2  0
 16 15  1  0
 17 16  2  0
 18 19  1  0
 21 22  1  1
M  END
$$$$
