
     RDKit          3D

 27 29  0  0  0  0  0  0  0  0999 V2000
  -14.9610   30.8983  -28.9351 C   0  0  0  0  0  0  0  0  0  0  0  0
  -15.9143   29.9850  -30.9768 C   0  0  0  0  0  0  0  0  0  0  0  0
  -13.5283   29.5551  -30.4382 C   0  0  1  0  0  0  0  0  0  0  0  0
  -12.5850   29.1189  -32.7267 C   0  0  0  0  0  0  0  0  0  0  0  0
  -11.1286   29.2558  -30.6955 C   0  0  0  0  0  0  0  0  0  0  0  0
  -12.2101   30.2318  -30.2147 C   0  0  0  0  0  0  0  0  0  0  0  0
   -9.1660   28.3890  -33.4759 C   0  0  0  0  0  0  0  0  0  0  0  0
   -8.0712   27.4414  -33.5596 C   0  0  0  0  0  0  0  0  0  0  0  0
   -7.6083   27.0767  -34.8036 C   0  0  0  0  0  0  0  0  0  0  0  0
   -5.9741   25.6318  -33.8982 C   0  0  0  0  0  0  0  0  0  0  0  0
   -4.9375   24.7370  -34.0584 C   0  0  0  0  0  0  0  0  0  0  0  0
   -4.2857   24.1393  -32.9777 C   0  0  0  0  0  0  0  0  0  0  0  0
   -2.9616   22.0741  -32.5756 C   0  0  1  0  0  0  0  0  0  0  0  0
   -4.7317   24.4890  -31.7235 C   0  0  0  0  0  0  0  0  0  0  0  0
   -5.7842   25.3974  -31.5592 C   0  0  0  0  0  0  0  0  0  0  0  0
   -6.4171   25.9788  -32.6364 C   0  0  0  0  0  0  0  0  0  0  0  0
   -7.4585   26.8777  -32.4784 C   0  0  0  0  0  0  0  0  0  0  0  0
  -14.6826   30.5572  -30.3629 C   0  0  2  0  0  0  0  0  0  0  0  0
  -14.2454   31.7265  -31.0121 O   0  0  0  0  0  0  0  0  0  0  0  0
  -13.5745   28.7206  -31.6746 C   0  0  0  0  0  0  0  0  0  0  0  0
  -11.1856   29.2755  -32.2255 C   0  0  1  0  0  0  0  0  0  0  0  0
  -10.3082   28.2046  -32.6599 N   0  0  0  0  0  0  0  0  0  0  0  0
   -9.1283   29.4447  -34.1549 O   0  0  0  0  0  0  0  0  0  0  0  0
   -6.5974   26.2041  -34.9547 N   0  0  0  0  0  0  0  0  0  0  0  0
   -3.2549   23.2524  -33.2349 O   0  0  0  0  0  0  0  0  0  0  0  0
   -4.0131   21.1793  -32.5430 F   0  0  0  0  0  0  0  0  0  0  0  0
   -1.9468   21.4355  -33.3038 F   0  0  0  0  0  0  0  0  0  0  0  0
 18  1  1  1
 18  2  1  0
  3  6  1  6
  3 18  1  0
 20  3  1  0
  4 20  1  0
 21  4  1  0
  5  6  1  0
 21  5  1  0
  7  8  1  0
 22  7  1  0
  7 23  2  0
  8  9  2  0
  8 17  1  0
  9 24  1  0
 10 11  1  0
 16 10  1  0
 24 10  2  0
 11 12  2  0
 14 12  1  0
 12 25  1  0
 25 13  1  0
 13 26  1  6
 13 27  1  0
 15 14  2  0
 16 15  1  0
 17 16  2  0
 18 19  1  0
 21 22  1  6
M  END
$$$$
