
     RDKit          3D

 27 29  0  0  0  0  0  0  0  0999 V2000
   15.4591   32.1146  -13.2553 C   0  0  0  0  0  0  0  0  0  0  0  0
   13.9300   33.7570  -12.3195 C   0  0  0  0  0  0  0  0  0  0  0  0
   13.1527   31.4270  -12.6865 C   0  0  1  0  0  0  0  0  0  0  0  0
   10.9639   31.0881  -13.8746 C   0  0  0  0  0  0  0  0  0  0  0  0
   12.3449   29.1643  -13.0637 C   0  0  0  0  0  0  0  0  0  0  0  0
   13.5085   30.1256  -13.3385 C   0  0  0  0  0  0  0  0  0  0  0  0
    9.1295   28.2250  -14.4457 C   0  0  0  0  0  0  0  0  0  0  0  0
    8.2532   27.1290  -14.0790 C   0  0  0  0  0  0  0  0  0  0  0  0
    8.1783   26.7590  -12.7553 C   0  0  0  0  0  0  0  0  0  0  0  0
    6.6183   25.0435  -13.2045 C   0  0  0  0  0  0  0  0  0  0  0  0
    5.8085   24.0119  -12.7790 C   0  0  0  0  0  0  0  0  0  0  0  0
    5.0104   23.2720  -13.6540 C   0  0  0  0  0  0  0  0  0  0  0  0
    3.0985   21.6836  -13.6893 C   0  0  1  0  0  0  0  0  0  0  0  0
    5.0691   23.6241  -14.9832 C   0  0  0  0  0  0  0  0  0  0  0  0
    5.8909   24.6713  -15.4167 C   0  0  0  0  0  0  0  0  0  0  0  0
    6.6727   25.3921  -14.5402 C   0  0  0  0  0  0  0  0  0  0  0  0
    7.4871   26.4285  -14.9647 C   0  0  0  0  0  0  0  0  0  0  0  0
   14.0350   32.5641  -13.2068 C   0  0  2  0  0  0  0  0  0  0  0  0
   13.6174   32.8290  -14.5241 O   0  0  0  0  0  0  0  0  0  0  0  0
   11.6983   31.7552  -12.7519 C   0  0  0  0  0  0  0  0  0  0  0  0
   11.1961   29.6148  -13.9704 C   0  0  1  0  0  0  0  0  0  0  0  0
   10.0455   28.8346  -13.5548 N   0  0  0  0  0  0  0  0  0  0  0  0
    9.0977   28.6825  -15.6147 O   0  0  0  0  0  0  0  0  0  0  0  0
    7.3872   25.7528  -12.3454 N   0  0  0  0  0  0  0  0  0  0  0  0
    4.2290   22.2538  -13.1363 O   0  0  0  0  0  0  0  0  0  0  0  0
    2.6826   20.5358  -13.0434 F   0  0  0  0  0  0  0  0  0  0  0  0
    2.0522   22.6045  -13.5306 F   0  0  0  0  0  0  0  0  0  0  0  0
 18  1  1  6
 18  2  1  0
  3  6  1  6
  3 18  1  0
 20  3  1  0
  4 20  1  0
 21  4  1  0
  5  6  1  0
 21  5  1  0
  7  8  1  0
 22  7  1  0
  7 23  2  0
  8  9  2  0
  8 17  1  0
  9 24  1  0
 10 11  1  0
 16 10  1  0
 24 10  2  0
 11 12  2  0
 14 12  1  0
 12 25  1  0
 25 13  1  0
 13 26  1  1
 13 27  1  0
 15 14  2  0
 16 15  1  0
 17 16  2  0
 18 19  1  0
 21 22  1  1
M  END
$$$$
