
     RDKit          3D

 27 29  0  0  0  0  0  0  0  0999 V2000
   15.3518   32.4684  -12.8558 C   0  0  0  0  0  0  0  0  0  0  0  0
   13.5634   33.3577  -14.2422 C   0  0  0  0  0  0  0  0  0  0  0  0
   13.3084   31.1184  -13.1990 C   0  0  1  0  0  0  0  0  0  0  0  0
   11.0845   30.8538  -14.3399 C   0  0  0  0  0  0  0  0  0  0  0  0
   12.3032   28.9085  -13.3420 C   0  0  0  0  0  0  0  0  0  0  0  0
   13.5424   29.7317  -13.7165 C   0  0  0  0  0  0  0  0  0  0  0  0
    9.0145   28.0974  -14.6094 C   0  0  0  0  0  0  0  0  0  0  0  0
    8.0319   27.1514  -14.1163 C   0  0  0  0  0  0  0  0  0  0  0  0
    7.9512   26.9312  -12.7600 C   0  0  0  0  0  0  0  0  0  0  0  0
    6.1992   25.3660  -13.0026 C   0  0  0  0  0  0  0  0  0  0  0  0
    5.2912   24.4823  -12.4588 C   0  0  0  0  0  0  0  0  0  0  0  0
    4.3932   23.7510  -13.2390 C   0  0  0  0  0  0  0  0  0  0  0  0
    2.9127   21.7574  -13.1228 C   0  0  1  0  0  0  0  0  0  0  0  0
    4.4556   23.9549  -14.5988 C   0  0  0  0  0  0  0  0  0  0  0  0
    5.3770   24.8518  -15.1524 C   0  0  0  0  0  0  0  0  0  0  0  0
    6.2568   25.5662  -14.3684 C   0  0  0  0  0  0  0  0  0  0  0  0
    7.1697   26.4544  -14.9118 C   0  0  0  0  0  0  0  0  0  0  0  0
   14.2796   32.1157  -13.8348 C   0  0  2  0  0  0  0  0  0  0  0  0
   14.8826   31.4557  -14.9213 O   0  0  0  0  0  0  0  0  0  0  0  0
   11.8872   31.5641  -13.2930 C   0  0  0  0  0  0  0  0  0  0  0  0
   11.1871   29.3637  -14.2862 C   0  0  1  0  0  0  0  0  0  0  0  0
    9.9783   28.7330  -13.7900 N   0  0  0  0  0  0  0  0  0  0  0  0
    9.0376   28.3907  -15.8303 O   0  0  0  0  0  0  0  0  0  0  0  0
    7.0644   26.0687  -12.2346 N   0  0  0  0  0  0  0  0  0  0  0  0
    3.5175   22.8868  -12.6054 O   0  0  0  0  0  0  0  0  0  0  0  0
    2.4292   21.9246  -14.4057 F   0  0  0  0  0  0  0  0  0  0  0  0
    3.9019   20.7675  -13.2199 F   0  0  0  0  0  0  0  0  0  0  0  0
 18  1  1  1
 18  2  1  0
  3  6  1  6
  3 18  1  0
 20  3  1  0
  4 20  1  0
 21  4  1  0
  5  6  1  0
 21  5  1  0
  7  8  1  0
 22  7  1  0
  7 23  2  0
  8  9  2  0
  8 17  1  0
  9 24  1  0
 10 11  1  0
 16 10  1  0
 24 10  2  0
 11 12  2  0
 14 12  1  0
 12 25  1  0
 25 13  1  0
 13 26  1  6
 13 27  1  0
 15 14  2  0
 16 15  1  0
 17 16  2  0
 18 19  1  0
 21 22  1  1
M  END
$$$$
