
     RDKit          3D

 27 29  0  0  0  0  0  0  0  0999 V2000
  -15.8030   31.6251  -33.3001 C   0  0  0  0  0  0  0  0  0  0  0  0
  -14.1910   32.9176  -34.5816 C   0  0  0  0  0  0  0  0  0  0  0  0
  -13.5738   30.6574  -33.7582 C   0  0  1  0  0  0  0  0  0  0  0  0
  -11.0679   30.8524  -33.7503 C   0  0  0  0  0  0  0  0  0  0  0  0
  -12.2453   28.8462  -32.8258 C   0  0  0  0  0  0  0  0  0  0  0  0
  -13.3421   29.8697  -32.5047 C   0  0  0  0  0  0  0  0  0  0  0  0
   -8.6772   28.4814  -32.8096 C   0  0  0  0  0  0  0  0  0  0  0  0
   -7.8584   27.3109  -33.0610 C   0  0  0  0  0  0  0  0  0  0  0  0
   -7.8204   26.7941  -34.3361 C   0  0  0  0  0  0  0  0  0  0  0  0
   -6.3354   25.0659  -33.7147 C   0  0  0  0  0  0  0  0  0  0  0  0
   -5.5807   23.9562  -34.0310 C   0  0  0  0  0  0  0  0  0  0  0  0
   -4.8050   23.2799  -33.0871 C   0  0  0  0  0  0  0  0  0  0  0  0
   -3.0693   21.5209  -32.8174 C   0  0  1  0  0  0  0  0  0  0  0  0
   -4.8274   23.7789  -31.8046 C   0  0  0  0  0  0  0  0  0  0  0  0
   -5.5931   24.9056  -31.4820 C   0  0  0  0  0  0  0  0  0  0  0  0
   -6.3536   25.5619  -32.4254 C   0  0  0  0  0  0  0  0  0  0  0  0
   -7.1125   26.6766  -32.1105 C   0  0  0  0  0  0  0  0  0  0  0  0
  -14.3524   31.9422  -33.4663 C   0  0  2  0  0  0  0  0  0  0  0  0
  -13.8718   32.4360  -32.2396 O   0  0  0  0  0  0  0  0  0  0  0  0
  -12.3337   30.9070  -34.5501 C   0  0  0  0  0  0  0  0  0  0  0  0
  -10.9340   29.6336  -32.8955 C   0  0  1  0  0  0  0  0  0  0  0  0
   -9.9461   28.6978  -33.3990 N   0  0  0  0  0  0  0  0  0  0  0  0
   -8.2642   29.3732  -32.0279 O   0  0  0  0  0  0  0  0  0  0  0  0
   -7.0832   25.7121  -34.6396 N   0  0  0  0  0  0  0  0  0  0  0  0
   -4.0796   22.1747  -33.4963 O   0  0  0  0  0  0  0  0  0  0  0  0
   -2.5851   20.4089  -33.4782 F   0  0  0  0  0  0  0  0  0  0  0  0
   -1.9868   22.4092  -32.7333 F   0  0  0  0  0  0  0  0  0  0  0  0
 18  1  1  1
 18  2  1  0
  3  6  1  1
  3 18  1  0
 20  3  1  0
  4 20  1  0
 21  4  1  0
  5  6  1  0
 21  5  1  0
  7  8  1  0
 22  7  1  0
  7 23  2  0
  8  9  2  0
  8 17  1  0
  9 24  1  0
 10 11  1  0
 16 10  1  0
 24 10  2  0
 11 12  2  0
 14 12  1  0
 12 25  1  0
 25 13  1  0
 13 26  1  6
 13 27  1  0
 15 14  2  0
 16 15  1  0
 17 16  2  0
 18 19  1  0
 21 22  1  6
M  END
$$$$
