
     RDKit          3D

 27 29  0  0  0  0  0  0  0  0999 V2000
   15.3560   32.2461  -12.6092 C   0  0  0  0  0  0  0  0  0  0  0  0
   13.4387   33.6864  -13.0100 C   0  0  0  0  0  0  0  0  0  0  0  0
   13.1039   31.2373  -12.7702 C   0  0  1  0  0  0  0  0  0  0  0  0
   10.9573   30.9055  -14.0350 C   0  0  0  0  0  0  0  0  0  0  0  0
   12.2697   28.9800  -13.1208 C   0  0  0  0  0  0  0  0  0  0  0  0
   13.4607   29.9131  -13.3739 C   0  0  0  0  0  0  0  0  0  0  0  0
    8.9486   28.3020  -14.5815 C   0  0  0  0  0  0  0  0  0  0  0  0
    7.9313   27.3176  -14.2656 C   0  0  0  0  0  0  0  0  0  0  0  0
    7.7323   26.9747  -12.9474 C   0  0  0  0  0  0  0  0  0  0  0  0
    6.0170   25.4430  -13.4857 C   0  0  0  0  0  0  0  0  0  0  0  0
    5.0693   24.5158  -13.1072 C   0  0  0  0  0  0  0  0  0  0  0  0
    4.2476   23.8613  -14.0272 C   0  0  0  0  0  0  0  0  0  0  0  0
    3.5654   21.7659  -12.8767 C   0  0  1  0  0  0  0  0  0  0  0  0
    4.4288   24.1883  -15.3518 C   0  0  0  0  0  0  0  0  0  0  0  0
    5.3906   25.1295  -15.7376 C   0  0  0  0  0  0  0  0  0  0  0  0
    6.1939   25.7669  -14.8171 C   0  0  0  0  0  0  0  0  0  0  0  0
    7.1465   26.6985  -15.1944 C   0  0  0  0  0  0  0  0  0  0  0  0
   14.0268   32.3447  -13.2843 C   0  0  2  0  0  0  0  0  0  0  0  0
   14.2177   32.1062  -14.6578 O   0  0  0  0  0  0  0  0  0  0  0  0
   11.6595   31.5891  -12.9016 C   0  0  0  0  0  0  0  0  0  0  0  0
   11.1658   29.4263  -14.0835 C   0  0  1  0  0  0  0  0  0  0  0  0
    9.9855   28.6777  -13.6939 N   0  0  0  0  0  0  0  0  0  0  0  0
    8.9361   28.8723  -15.7003 O   0  0  0  0  0  0  0  0  0  0  0  0
    6.8072   26.0703  -12.5833 N   0  0  0  0  0  0  0  0  0  0  0  0
    3.3240   22.9453  -13.5549 O   0  0  0  0  0  0  0  0  0  0  0  0
    3.6179   21.9149  -11.5046 F   0  0  0  0  0  0  0  0  0  0  0  0
    2.4744   20.9187  -13.1213 F   0  0  0  0  0  0  0  0  0  0  0  0
 18  1  1  1
 18  2  1  0
  3  6  1  6
  3 18  1  0
 20  3  1  0
  4 20  1  0
 21  4  1  0
  5  6  1  0
 21  5  1  0
  7  8  1  0
 22  7  1  0
  7 23  2  0
  8  9  2  0
  8 17  1  0
  9 24  1  0
 10 11  1  0
 16 10  1  0
 24 10  2  0
 11 12  2  0
 14 12  1  0
 12 25  1  0
 25 13  1  0
 13 26  1  1
 13 27  1  0
 15 14  2  0
 16 15  1  0
 17 16  2  0
 18 19  1  0
 21 22  1  1
M  END
$$$$
