
     RDKit          3D

 39 43  0  0  0  0  0  0  0  0999 V2000
  -23.5249    7.8408   -0.9543 C   0  0  1  0  0  0  0  0  0  0  0  0
  -21.3020    8.9557   -1.0682 C   0  0  1  0  0  0  0  0  0  0  0  0
  -18.4033    8.2733   -0.7582 C   0  0  0  0  0  0  0  0  0  0  0  0
  -16.5759    9.8623   -0.8902 C   0  0  0  0  0  0  0  0  0  0  0  0
  -11.9528    9.2480    0.8444 C   0  0  0  0  0  0  0  0  0  0  0  0
  -12.1442    8.6860    2.0844 C   0  0  0  0  0  0  0  0  0  0  0  0
  -11.0823    8.4075    2.9295 C   0  0  0  0  0  0  0  0  0  0  0  0
   -9.5814    9.2533    1.3057 C   0  0  0  0  0  0  0  0  0  0  0  0
  -26.6312    9.1126    4.6157 C   0  0  0  0  0  0  0  0  0  0  0  0
  -26.9892    9.6780    3.4119 C   0  0  0  0  0  0  0  0  0  0  0  0
  -28.2426   10.1917    3.2741 C   0  0  0  0  0  0  0  0  0  0  0  0
  -29.1319   10.1381    4.3391 C   0  0  0  0  0  0  0  0  0  0  0  0
  -28.7763    9.5717    5.5484 C   0  0  0  0  0  0  0  0  0  0  0  0
  -27.5113    9.0509    5.6939 C   0  0  0  0  0  0  0  0  0  0  0  0
  -26.0289    9.7177    2.3109 C   0  0  0  0  0  0  0  0  0  0  0  0
  -25.0208    8.8138    2.0500 C   0  0  0  0  0  0  0  0  0  0  0  0
  -23.2275    8.6499   -2.1681 C   0  0  1  0  0  0  0  0  0  0  0  0
  -23.2037    8.4840    0.3480 C   0  0  1  0  0  0  0  0  0  0  0  0
  -21.9782    9.3911    0.2389 C   0  0  1  0  0  0  0  0  0  0  0  0
  -24.4606    9.4346   -2.5969 C   0  0  0  0  0  0  0  0  0  0  0  0
  -17.1696    8.6653   -1.5845 C   0  0  2  0  0  0  0  0  0  0  0  0
  -14.4125    9.4570    0.3013 C   0  0  0  0  0  0  0  0  0  0  0  0
  -27.1733    8.4994    6.8797 F   0  0  0  0  0  0  0  0  0  0  0  0
  -25.9296   10.6340    1.3331 N   0  0  0  0  0  0  0  0  0  0  0  0
  -24.9241   10.3063    0.5295 N   0  0  0  0  0  0  0  0  0  0  0  0
  -24.3367    9.1939    0.9319 N   0  0  0  0  0  0  0  0  0  0  0  0
  -15.1398    9.7972   -0.7552 N   0  0  0  0  0  0  0  0  0  0  0  0
  -14.3030   10.0870   -1.7324 N   0  0  0  0  0  0  0  0  0  0  0  0
  -13.0563    9.9386   -1.3212 N   0  0  0  0  0  0  0  0  0  0  0  0
  -22.1108    9.4456   -2.0853 O   0  0  0  0  0  0  0  0  0  0  0  0
  -24.9146    7.5802   -0.9543 O   0  0  0  0  0  0  0  0  0  0  0  0
  -24.7792    9.1773   -3.9322 O   0  0  0  0  0  0  0  0  0  0  0  0
  -21.1026    9.2106    1.2846 O   0  0  0  0  0  0  0  0  0  0  0  0
  -17.6377    9.0525   -2.8391 O   0  0  0  0  0  0  0  0  0  0  0  0
  -19.6281    9.5703   -1.0727 S   0  0  0  0  0  0  0  0  0  0  0  0
  -13.0565    9.5402   -0.0386 C   0  0  0  0  0  0  0  0  0  0  0  0
   -9.7940    8.6893    2.5459 C   0  0  0  0  0  0  0  0  0  0  0  0
  -10.6655    9.5290    0.4624 C   0  0  0  0  0  0  0  0  0  0  0  0
  -11.2889    7.8574    4.1397 F   0  0  0  0  0  0  0  0  0  0  0  0
 17  1  1  0
 18  1  1  0
  1 31  1  1
  2 19  1  0
  2 30  1  0
  2 35  1  6
 21  3  1  0
  3 35  1  0
  4 21  1  0
 27  4  1  0
  5  6  2  0
 36  5  1  0
  5 38  1  0
  6  7  1  0
  7 37  2  0
  7 39  1  0
  8 37  1  0
 38  8  2  0
 10  9  2  0
  9 14  1  0
 10 11  1  0
 15 10  1  0
 11 12  2  0
 12 13  1  0
 14 13  2  0
 14 23  1  0
 16 15  2  0
 15 24  1  0
 26 16  1  0
 17 20  1  1
 30 17  1  0
 19 18  1  0
 18 26  1  6
 19 33  1  1
 20 32  1  0
 21 34  1  6
 22 27  1  0
 22 36  2  0
 24 25  2  0
 25 26  1  0
 27 28  1  0
 28 29  2  0
 29 36  1  0
M  END
$$$$
