
     RDKit          3D

 39 43  0  0  0  0  0  0  0  0999 V2000
  -24.4741    9.6286   -1.2609 C   0  0  1  0  0  0  0  0  0  0  0  0
  -22.1364    9.2927   -0.4739 C   0  0  1  0  0  0  0  0  0  0  0  0
  -19.7593    7.5698   -1.0613 C   0  0  0  0  0  0  0  0  0  0  0  0
  -17.4740    7.5493   -1.8729 C   0  0  0  0  0  0  0  0  0  0  0  0
  -12.8418    8.1580   -0.1606 C   0  0  0  0  0  0  0  0  0  0  0  0
  -12.9361    8.4285    1.1839 C   0  0  0  0  0  0  0  0  0  0  0  0
  -11.8533    8.8971    1.9102 C   0  0  0  0  0  0  0  0  0  0  0  0
  -10.5272    8.8408   -0.0501 C   0  0  0  0  0  0  0  0  0  0  0  0
  -28.7000    9.5689    4.3117 C   0  0  0  0  0  0  0  0  0  0  0  0
  -28.4996    9.1290    3.0220 C   0  0  0  0  0  0  0  0  0  0  0  0
  -29.4492    8.3460    2.4398 C   0  0  0  0  0  0  0  0  0  0  0  0
  -30.5939    8.0065    3.1484 C   0  0  0  0  0  0  0  0  0  0  0  0
  -30.7985    8.4459    4.4426 C   0  0  0  0  0  0  0  0  0  0  0  0
  -29.8427    9.2374    5.0365 C   0  0  0  0  0  0  0  0  0  0  0  0
  -27.2830    9.5047    2.3044 C   0  0  0  0  0  0  0  0  0  0  0  0
  -26.5410    8.7164    1.4504 C   0  0  0  0  0  0  0  0  0  0  0  0
  -23.5406   10.7821   -1.3799 C   0  0  1  0  0  0  0  0  0  0  0  0
  -24.4677    8.9220    0.0482 C   0  0  1  0  0  0  0  0  0  0  0  0
  -23.0772    8.9291    0.6830 C   0  0  1  0  0  0  0  0  0  0  0  0
  -24.2528   12.0795   -1.0198 C   0  0  0  0  0  0  0  0  0  0  0  0
  -18.2956    7.4374   -0.6160 C   0  0  2  0  0  0  0  0  0  0  0  0
  -15.2901    8.1114   -0.7870 C   0  0  0  0  0  0  0  0  0  0  0  0
  -30.0518    9.6618    6.3016 F   0  0  0  0  0  0  0  0  0  0  0  0
  -26.6410   10.6849    2.3267 N   0  0  0  0  0  0  0  0  0  0  0  0
  -25.5762   10.6165    1.5358 N   0  0  0  0  0  0  0  0  0  0  0  0
  -25.4751    9.4245    0.9761 N   0  0  0  0  0  0  0  0  0  0  0  0
  -16.0523    7.4438   -1.6440 N   0  0  0  0  0  0  0  0  0  0  0  0
  -15.2690    6.6114   -2.3018 N   0  0  0  0  0  0  0  0  0  0  0  0
  -14.0222    6.7341   -1.8822 N   0  0  0  0  0  0  0  0  0  0  0  0
  -22.3477   10.6443   -0.7129 O   0  0  0  0  0  0  0  0  0  0  0  0
  -25.7831   10.1269   -1.4545 O   0  0  0  0  0  0  0  0  0  0  0  0
  -24.4408   12.8785   -2.1497 O   0  0  0  0  0  0  0  0  0  0  0  0
  -22.7268    7.6958    1.1820 O   0  0  0  0  0  0  0  0  0  0  0  0
  -18.1536    6.1535   -0.0921 O   0  0  0  0  0  0  0  0  0  0  0  0
  -20.4706    8.8601   -0.0074 S   0  0  0  0  0  0  0  0  0  0  0  0
  -13.9678    7.6704   -0.9208 C   0  0  0  0  0  0  0  0  0  0  0  0
  -10.6418    9.1063    1.2981 C   0  0  0  0  0  0  0  0  0  0  0  0
  -11.6311    8.3674   -0.7709 C   0  0  0  0  0  0  0  0  0  0  0  0
  -11.9644    9.1565    3.2255 F   0  0  0  0  0  0  0  0  0  0  0  0
 17  1  1  0
 18  1  1  0
  1 31  1  1
  2 19  1  0
  2 30  1  0
  2 35  1  1
 21  3  1  0
  3 35  1  0
  4 21  1  0
 27  4  1  0
  5  6  2  0
 36  5  1  0
  5 38  1  0
  6  7  1  0
  7 37  2  0
  7 39  1  0
  8 37  1  0
 38  8  2  0
 10  9  2  0
  9 14  1  0
 10 11  1  0
 15 10  1  0
 11 12  2  0
 12 13  1  0
 14 13  2  0
 14 23  1  0
 16 15  2  0
 15 24  1  0
 26 16  1  0
 17 20  1  1
 30 17  1  0
 19 18  1  0
 18 26  1  1
 19 33  1  6
 20 32  1  0
 21 34  1  6
 22 27  1  0
 22 36  2  0
 24 25  2  0
 25 26  1  0
 27 28  1  0
 28 29  2  0
 29 36  1  0
M  END
$$$$
