
     RDKit          3D

 39 43  0  0  0  0  0  0  0  0999 V2000
  -18.5771    7.1573   -1.2507 C   0  0  1  0  0  0  0  0  0  0  0  0
  -20.4439    8.7126   -0.7090 C   0  0  1  0  0  0  0  0  0  0  0  0
  -23.1361    9.5372   -1.7270 C   0  0  0  0  0  0  0  0  0  0  0  0
  -25.4904    9.4083   -1.1588 C   0  0  0  0  0  0  0  0  0  0  0  0
  -27.8421    9.4547    3.2260 C   0  0  0  0  0  0  0  0  0  0  0  0
  -26.9548    8.8626    4.0932 C   0  0  0  0  0  0  0  0  0  0  0  0
  -27.2983    8.5778    5.4048 C   0  0  0  0  0  0  0  0  0  0  0  0
  -29.4548    9.4779    5.0246 C   0  0  0  0  0  0  0  0  0  0  0  0
  -12.2887    8.7794    0.6704 C   0  0  0  0  0  0  0  0  0  0  0  0
  -13.1474    8.8500   -0.4041 C   0  0  0  0  0  0  0  0  0  0  0  0
  -12.6247    8.9337   -1.6586 C   0  0  0  0  0  0  0  0  0  0  0  0
  -11.2474    8.9466   -1.8334 C   0  0  0  0  0  0  0  0  0  0  0  0
  -10.3826    8.8760   -0.7578 C   0  0  0  0  0  0  0  0  0  0  0  0
  -10.9046    8.7912    0.5123 C   0  0  0  0  0  0  0  0  0  0  0  0
  -14.5923    8.8344   -0.1849 C   0  0  0  0  0  0  0  0  0  0  0  0
  -15.5782    8.6596   -1.1330 C   0  0  0  0  0  0  0  0  0  0  0  0
  -19.4921    6.7672   -0.1430 C   0  0  1  0  0  0  0  0  0  0  0  0
  -18.0862    8.5613   -1.2217 C   0  0  1  0  0  0  0  0  0  0  0  0
  -19.1347    9.5107   -0.6423 C   0  0  1  0  0  0  0  0  0  0  0  0
  -18.7027    6.1471    1.0027 C   0  0  0  0  0  0  0  0  0  0  0  0
  -24.3313   10.3665   -1.2350 C   0  0  2  0  0  0  0  0  0  0  0  0
  -26.4228    9.1800    1.1526 C   0  0  0  0  0  0  0  0  0  0  0  0
  -10.0513    8.7227    1.5571 F   0  0  0  0  0  0  0  0  0  0  0  0
  -15.2543    8.9852    0.9747 N   0  0  0  0  0  0  0  0  0  0  0  0
  -16.5600    8.9068    0.7442 N   0  0  0  0  0  0  0  0  0  0  0  0
  -16.8056    8.7070   -0.5381 N   0  0  0  0  0  0  0  0  0  0  0  0
  -26.3998    9.6883   -0.0729 N   0  0  0  0  0  0  0  0  0  0  0  0
  -27.3971   10.5467   -0.1618 N   0  0  0  0  0  0  0  0  0  0  0  0
  -28.0561   10.5966    0.9821 N   0  0  0  0  0  0  0  0  0  0  0  0
  -20.3447    7.7532    0.2902 O   0  0  0  0  0  0  0  0  0  0  0  0
  -17.4401    6.3207   -1.1697 O   0  0  0  0  0  0  0  0  0  0  0  0
  -19.3606    5.0274    1.5164 O   0  0  0  0  0  0  0  0  0  0  0  0
  -19.2652   10.6593   -1.3882 O   0  0  0  0  0  0  0  0  0  0  0  0
  -24.5899   11.3162   -2.2221 O   0  0  0  0  0  0  0  0  0  0  0  0
  -21.8088    9.8466   -0.5337 S   0  0  0  0  0  0  0  0  0  0  0  0
  -27.4881    9.7523    1.8587 C   0  0  0  0  0  0  0  0  0  0  0  0
  -28.5504    8.8835    5.8792 C   0  0  0  0  0  0  0  0  0  0  0  0
  -29.0925    9.7596    3.7010 C   0  0  0  0  0  0  0  0  0  0  0  0
  -26.4167    7.9979    6.2391 F   0  0  0  0  0  0  0  0  0  0  0  0
 17  1  1  0
 18  1  1  0
  1 31  1  1
  2 19  1  0
  2 30  1  0
  2 35  1  1
 21  3  1  0
  3 35  1  0
  4 21  1  0
 27  4  1  0
  5  6  2  0
 36  5  1  0
  5 38  1  0
  6  7  1  0
  7 37  2  0
  7 39  1  0
  8 37  1  0
 38  8  2  0
 10  9  2  0
  9 14  1  0
 10 11  1  0
 15 10  1  0
 11 12  2  0
 12 13  1  0
 14 13  2  0
 14 23  1  0
 16 15  2  0
 15 24  1  0
 26 16  1  0
 17 20  1  1
 30 17  1  0
 19 18  1  0
 18 26  1  1
 19 33  1  6
 20 32  1  0
 21 34  1  6
 22 27  1  0
 22 36  2  0
 24 25  2  0
 25 26  1  0
 27 28  1  0
 28 29  2  0
 29 36  1  0
M  END
$$$$
