
     RDKit          3D

 39 43  0  0  0  0  0  0  0  0999 V2000
  -18.6302    7.2411   -1.2213 C   0  0  1  0  0  0  0  0  0  0  0  0
  -20.2322    9.1425   -1.3455 C   0  0  1  0  0  0  0  0  0  0  0  0
  -23.0330    9.8184   -2.1597 C   0  0  0  0  0  0  0  0  0  0  0  0
  -25.0907   10.6630   -3.1265 C   0  0  0  0  0  0  0  0  0  0  0  0
  -27.3360    6.3974   -1.8927 C   0  0  0  0  0  0  0  0  0  0  0  0
  -26.5495    5.4365   -2.4826 C   0  0  0  0  0  0  0  0  0  0  0  0
  -26.8691    4.0902   -2.4128 C   0  0  0  0  0  0  0  0  0  0  0  0
  -28.7962    4.6239   -1.1455 C   0  0  0  0  0  0  0  0  0  0  0  0
  -12.5998    7.3493   -1.9865 C   0  0  0  0  0  0  0  0  0  0  0  0
  -12.9879    8.2579   -1.0270 C   0  0  0  0  0  0  0  0  0  0  0  0
  -12.0326    8.8517   -0.2596 C   0  0  0  0  0  0  0  0  0  0  0  0
  -10.6949    8.5349   -0.4544 C   0  0  0  0  0  0  0  0  0  0  0  0
  -10.3016    7.6237   -1.4161 C   0  0  0  0  0  0  0  0  0  0  0  0
  -11.2621    7.0204   -2.1948 C   0  0  0  0  0  0  0  0  0  0  0  0
  -14.4048    8.5685   -0.8478 C   0  0  0  0  0  0  0  0  0  0  0  0
  -15.4531    8.1771   -1.6535 C   0  0  0  0  0  0  0  0  0  0  0  0
  -19.5339    7.4505   -0.0569 C   0  0  1  0  0  0  0  0  0  0  0  0
  -17.9474    8.4572   -1.7387 C   0  0  1  0  0  0  0  0  0  0  0  0
  -18.8228    9.7008   -1.5848 C   0  0  1  0  0  0  0  0  0  0  0  0
  -18.7823    7.2131    1.2465 C   0  0  0  0  0  0  0  0  0  0  0  0
  -23.9472   11.0505   -2.2267 C   0  0  2  0  0  0  0  0  0  0  0  0
  -25.9738    8.3550   -2.7301 C   0  0  0  0  0  0  0  0  0  0  0  0
  -10.8678    6.1312   -3.1320 F   0  0  0  0  0  0  0  0  0  0  0  0
  -14.9753    9.2924    0.1299 N   0  0  0  0  0  0  0  0  0  0  0  0
  -16.2875    9.3373   -0.0703 N   0  0  0  0  0  0  0  0  0  0  0  0
  -16.6263    8.6651   -1.1556 N   0  0  0  0  0  0  0  0  0  0  0  0
  -25.9665    9.6698   -2.5510 N   0  0  0  0  0  0  0  0  0  0  0  0
  -26.9425    9.9584   -1.7124 N   0  0  0  0  0  0  0  0  0  0  0  0
  -27.5728    8.8544   -1.3526 N   0  0  0  0  0  0  0  0  0  0  0  0
  -20.2179    8.6418   -0.0502 O   0  0  0  0  0  0  0  0  0  0  0  0
  -17.6184    6.3429   -0.8106 O   0  0  0  0  0  0  0  0  0  0  0  0
  -19.4318    6.2591    2.0331 O   0  0  0  0  0  0  0  0  0  0  0  0
  -18.8291   10.4765   -2.7210 O   0  0  0  0  0  0  0  0  0  0  0  0
  -23.2082   12.0614   -2.8392 O   0  0  0  0  0  0  0  0  0  0  0  0
  -21.4151   10.4443   -1.6383 S   0  0  0  0  0  0  0  0  0  0  0  0
  -27.0067    7.8009   -1.9638 C   0  0  0  0  0  0  0  0  0  0  0  0
  -27.9944    3.6750   -1.7439 C   0  0  0  0  0  0  0  0  0  0  0  0
  -28.4598    5.9815   -1.2248 C   0  0  0  0  0  0  0  0  0  0  0  0
  -26.0874    3.1639   -2.9965 F   0  0  0  0  0  0  0  0  0  0  0  0
 17  1  1  0
 18  1  1  0
  1 31  1  1
  2 19  1  0
  2 30  1  0
  2 35  1  1
 21  3  1  0
  3 35  1  0
  4 21  1  0
 27  4  1  0
  5  6  2  0
 36  5  1  0
  5 38  1  0
  6  7  1  0
  7 37  2  0
  7 39  1  0
  8 37  1  0
 38  8  2  0
 10  9  2  0
  9 14  1  0
 10 11  1  0
 15 10  1  0
 11 12  2  0
 12 13  1  0
 14 13  2  0
 14 23  1  0
 16 15  2  0
 15 24  1  0
 26 16  1  0
 17 20  1  1
 30 17  1  0
 19 18  1  0
 18 26  1  1
 19 33  1  6
 20 32  1  0
 21 34  1  6
 22 27  1  0
 22 36  2  0
 24 25  2  0
 25 26  1  0
 27 28  1  0
 28 29  2  0
 29 36  1  0
M  END
$$$$
