
     RDKit          3D

 39 43  0  0  0  0  0  0  0  0999 V2000
  -24.7160    9.3756   -1.6176 C   0  0  1  0  0  0  0  0  0  0  0  0
  -22.2407    9.4100   -1.3558 C   0  0  1  0  0  0  0  0  0  0  0  0
  -19.9227    7.5191   -1.4816 C   0  0  0  0  0  0  0  0  0  0  0  0
  -17.5230    7.3963   -1.8110 C   0  0  0  0  0  0  0  0  0  0  0  0
  -13.2395    8.1807    0.5965 C   0  0  0  0  0  0  0  0  0  0  0  0
  -13.3495    8.1925    1.9667 C   0  0  0  0  0  0  0  0  0  0  0  0
  -12.3797    8.7697    2.7703 C   0  0  0  0  0  0  0  0  0  0  0  0
  -11.1401    9.3511    0.8389 C   0  0  0  0  0  0  0  0  0  0  0  0
  -27.8140    8.6503    4.0550 C   0  0  0  0  0  0  0  0  0  0  0  0
  -27.7698    9.8387    3.3602 C   0  0  0  0  0  0  0  0  0  0  0  0
  -28.7174   10.7832    3.6129 C   0  0  0  0  0  0  0  0  0  0  0  0
  -29.7040   10.5360    4.5580 C   0  0  0  0  0  0  0  0  0  0  0  0
  -29.7516    9.3449    5.2570 C   0  0  0  0  0  0  0  0  0  0  0  0
  -28.7970    8.3865    5.0063 C   0  0  0  0  0  0  0  0  0  0  0  0
  -26.7176   10.0666    2.3717 C   0  0  0  0  0  0  0  0  0  0  0  0
  -26.1171    9.1269    1.5607 C   0  0  0  0  0  0  0  0  0  0  0  0
  -23.9783   10.5077   -2.2426 C   0  0  1  0  0  0  0  0  0  0  0  0
  -24.3417    9.0543   -0.2142 C   0  0  1  0  0  0  0  0  0  0  0  0
  -22.8589    9.3188    0.0460 C   0  0  1  0  0  0  0  0  0  0  0  0
  -24.7499   11.8082   -2.0596 C   0  0  0  0  0  0  0  0  0  0  0  0
  -18.5827    7.3980   -0.7412 C   0  0  2  0  0  0  0  0  0  0  0  0
  -15.5300    8.0975   -0.4691 C   0  0  0  0  0  0  0  0  0  0  0  0
  -28.8520    7.2256    5.6946 F   0  0  0  0  0  0  0  0  0  0  0  0
  -26.1227   11.2277    2.0502 N   0  0  0  0  0  0  0  0  0  0  0  0
  -25.2179   11.0060    1.1035 N   0  0  0  0  0  0  0  0  0  0  0  0
  -25.1799    9.7282    0.7715 N   0  0  0  0  0  0  0  0  0  0  0  0
  -16.1801    7.2848   -1.2924 N   0  0  0  0  0  0  0  0  0  0  0  0
  -15.3658    6.2907   -1.5886 N   0  0  0  0  0  0  0  0  0  0  0  0
  -14.2090    6.4524   -0.9712 N   0  0  0  0  0  0  0  0  0  0  0  0
  -22.6623   10.6299   -1.8685 O   0  0  0  0  0  0  0  0  0  0  0  0
  -26.0870    9.7215   -1.6103 O   0  0  0  0  0  0  0  0  0  0  0  0
  -24.8239   12.5202   -3.2588 O   0  0  0  0  0  0  0  0  0  0  0  0
  -22.2611    8.2919    0.7394 O   0  0  0  0  0  0  0  0  0  0  0  0
  -18.5901    6.1573   -0.1057 O   0  0  0  0  0  0  0  0  0  0  0  0
  -20.4733    9.2233   -1.2093 S   0  0  0  0  0  0  0  0  0  0  0  0
  -14.2481    7.5809   -0.2440 C   0  0  0  0  0  0  0  0  0  0  0  0
  -11.2687    9.3528    2.2119 C   0  0  0  0  0  0  0  0  0  0  0  0
  -12.1293    8.7634    0.0398 C   0  0  0  0  0  0  0  0  0  0  0  0
  -12.5045    8.7719    4.1098 F   0  0  0  0  0  0  0  0  0  0  0  0
 17  1  1  0
 18  1  1  0
  1 31  1  1
  2 19  1  0
  2 30  1  0
  2 35  1  1
 21  3  1  0
  3 35  1  0
  4 21  1  0
 27  4  1  0
  5  6  2  0
 36  5  1  0
  5 38  1  0
  6  7  1  0
  7 37  2  0
  7 39  1  0
  8 37  1  0
 38  8  2  0
 10  9  2  0
  9 14  1  0
 10 11  1  0
 15 10  1  0
 11 12  2  0
 12 13  1  0
 14 13  2  0
 14 23  1  0
 16 15  2  0
 15 24  1  0
 26 16  1  0
 17 20  1  1
 30 17  1  0
 19 18  1  0
 18 26  1  1
 19 33  1  1
 20 32  1  0
 21 34  1  6
 22 27  1  0
 22 36  2  0
 24 25  2  0
 25 26  1  0
 27 28  1  0
 28 29  2  0
 29 36  1  0
M  END
$$$$
