
     RDKit          3D

 39 43  0  0  0  0  0  0  0  0999 V2000
  -20.3402    8.4411    0.4999 C   0  0  1  0  0  0  0  0  0  0  0  0
  -19.7453    9.0386   -1.8424 C   0  0  1  0  0  0  0  0  0  0  0  0
  -18.0965   11.0562   -3.3170 C   0  0  0  0  0  0  0  0  0  0  0  0
  -15.6964   11.2828   -3.0520 C   0  0  0  0  0  0  0  0  0  0  0  0
  -12.6002    9.1936    0.2356 C   0  0  0  0  0  0  0  0  0  0  0  0
  -11.9050   10.2159    0.8368 C   0  0  0  0  0  0  0  0  0  0  0  0
  -11.1353   10.0058    1.9694 C   0  0  0  0  0  0  0  0  0  0  0  0
  -11.7355    7.7159    1.9399 C   0  0  0  0  0  0  0  0  0  0  0  0
  -26.9621    8.8224    2.1901 C   0  0  0  0  0  0  0  0  0  0  0  0
  -25.8015    9.5640    2.1830 C   0  0  0  0  0  0  0  0  0  0  0  0
  -25.7049   10.6411    3.0103 C   0  0  0  0  0  0  0  0  0  0  0  0
  -26.7676   10.9719    3.8403 C   0  0  0  0  0  0  0  0  0  0  0  0
  -27.9337   10.2303    3.8502 C   0  0  0  0  0  0  0  0  0  0  0  0
  -28.0375    9.1408    3.0166 C   0  0  0  0  0  0  0  0  0  0  0  0
  -24.7018    9.1885    1.2966 C   0  0  0  0  0  0  0  0  0  0  0  0
  -23.4382    9.7389    1.2554 C   0  0  0  0  0  0  0  0  0  0  0  0
  -19.9704    7.3277   -0.4165 C   0  0  1  0  0  0  0  0  0  0  0  0
  -21.3096    9.4313   -0.0414 C   0  0  1  0  0  0  0  0  0  0  0  0
  -21.1330    9.6241   -1.5474 C   0  0  1  0  0  0  0  0  0  0  0  0
  -20.8710    6.1229   -0.1767 C   0  0  0  0  0  0  0  0  0  0  0  0
  -16.7460   10.5706   -3.8635 C   0  0  2  0  0  0  0  0  0  0  0  0
  -14.1964   10.5351   -1.1932 C   0  0  0  0  0  0  0  0  0  0  0  0
  -29.1811    8.4222    3.0335 F   0  0  0  0  0  0  0  0  0  0  0  0
  -24.6931    8.2379    0.3469 N   0  0  0  0  0  0  0  0  0  0  0  0
  -23.4989    8.2134   -0.2339 N   0  0  0  0  0  0  0  0  0  0  0  0
  -22.6950    9.1193    0.2929 N   0  0  0  0  0  0  0  0  0  0  0  0
  -14.7888   10.3894   -2.3716 N   0  0  0  0  0  0  0  0  0  0  0  0
  -14.4022    9.2295   -2.8659 N   0  0  0  0  0  0  0  0  0  0  0  0
  -13.5750    8.6318   -2.0268 N   0  0  0  0  0  0  0  0  0  0  0  0
  -19.8960    7.6613   -1.7470 O   0  0  0  0  0  0  0  0  0  0  0  0
  -20.9368    7.8623    1.6437 O   0  0  0  0  0  0  0  0  0  0  0  0
  -20.1169    4.9607    0.0003 O   0  0  0  0  0  0  0  0  0  0  0  0
  -21.1510   10.9517   -1.9076 O   0  0  0  0  0  0  0  0  0  0  0  0
  -16.6721   11.0058   -5.1857 O   0  0  0  0  0  0  0  0  0  0  0  0
  -19.2074    9.6304   -3.4362 S   0  0  0  0  0  0  0  0  0  0  0  0
  -13.4026    9.4085   -0.9448 C   0  0  0  0  0  0  0  0  0  0  0  0
  -11.0454    8.7545    2.5285 C   0  0  0  0  0  0  0  0  0  0  0  0
  -12.5096    7.9442    0.7949 C   0  0  0  0  0  0  0  0  0  0  0  0
  -10.4616   11.0185    2.5441 F   0  0  0  0  0  0  0  0  0  0  0  0
 17  1  1  0
 18  1  1  0
  1 31  1  1
  2 19  1  0
  2 30  1  0
  2 35  1  6
 21  3  1  0
  3 35  1  0
  4 21  1  0
 27  4  1  0
  5  6  2  0
 36  5  1  0
  5 38  1  0
  6  7  1  0
  7 37  2  0
  7 39  1  0
  8 37  1  0
 38  8  2  0
 10  9  2  0
  9 14  1  0
 10 11  1  0
 15 10  1  0
 11 12  2  0
 12 13  1  0
 14 13  2  0
 14 23  1  0
 16 15  2  0
 15 24  1  0
 26 16  1  0
 17 20  1  6
 30 17  1  0
 19 18  1  0
 18 26  1  6
 19 33  1  1
 20 32  1  0
 21 34  1  6
 22 27  1  0
 22 36  2  0
 24 25  2  0
 25 26  1  0
 27 28  1  0
 28 29  2  0
 29 36  1  0
M  END
$$$$
