
     RDKit          3D

 39 43  0  0  0  0  0  0  0  0999 V2000
  -21.4815    9.8939    0.8346 C   0  0  1  0  0  0  0  0  0  0  0  0
  -20.4755    9.8729   -1.4423 C   0  0  1  0  0  0  0  0  0  0  0  0
  -18.6041   11.4971   -3.1228 C   0  0  0  0  0  0  0  0  0  0  0  0
  -16.4381   11.5226   -2.0320 C   0  0  0  0  0  0  0  0  0  0  0  0
  -12.6633    8.5702   -0.6926 C   0  0  0  0  0  0  0  0  0  0  0  0
  -11.3951    8.7326   -0.1873 C   0  0  0  0  0  0  0  0  0  0  0  0
  -10.6839    7.6721    0.3499 C   0  0  0  0  0  0  0  0  0  0  0  0
  -12.5053    6.2312   -0.1096 C   0  0  0  0  0  0  0  0  0  0  0  0
  -27.9563    8.5623    1.8101 C   0  0  0  0  0  0  0  0  0  0  0  0
  -27.2511    9.6081    1.2570 C   0  0  0  0  0  0  0  0  0  0  0  0
  -27.8108   10.8494    1.2541 C   0  0  0  0  0  0  0  0  0  0  0  0
  -29.0716   11.0397    1.8036 C   0  0  0  0  0  0  0  0  0  0  0  0
  -29.7821    9.9928    2.3595 C   0  0  0  0  0  0  0  0  0  0  0  0
  -29.2220    8.7362    2.3655 C   0  0  0  0  0  0  0  0  0  0  0  0
  -25.9261    9.3732    0.6866 C   0  0  0  0  0  0  0  0  0  0  0  0
  -24.8634   10.2513    0.6556 C   0  0  0  0  0  0  0  0  0  0  0  0
  -20.6233    8.7310    0.4773 C   0  0  1  0  0  0  0  0  0  0  0  0
  -22.4955   10.2872   -0.1804 C   0  0  1  0  0  0  0  0  0  0  0  0
  -21.9932   10.0363   -1.6021 C   0  0  1  0  0  0  0  0  0  0  0  0
  -21.2247    7.4417    1.0216 C   0  0  0  0  0  0  0  0  0  0  0  0
  -17.1854   10.9129   -3.1884 C   0  0  2  0  0  0  0  0  0  0  0  0
  -14.7992    9.8190   -1.2098 C   0  0  0  0  0  0  0  0  0  0  0  0
  -29.9243    7.7196    2.9110 F   0  0  0  0  0  0  0  0  0  0  0  0
  -25.4720    8.2635    0.0800 N   0  0  0  0  0  0  0  0  0  0  0  0
  -24.2127    8.4565   -0.2953 N   0  0  0  0  0  0  0  0  0  0  0  0
  -23.7969    9.6650    0.0381 N   0  0  0  0  0  0  0  0  0  0  0  0
  -15.1300   10.9481   -1.8235 N   0  0  0  0  0  0  0  0  0  0  0  0
  -14.0133   11.5086   -2.2453 N   0  0  0  0  0  0  0  0  0  0  0  0
  -12.9764   10.7603   -1.9134 N   0  0  0  0  0  0  0  0  0  0  0  0
  -20.2965    8.6282   -0.8529 O   0  0  0  0  0  0  0  0  0  0  0  0
  -22.1868    9.5489    2.0105 O   0  0  0  0  0  0  0  0  0  0  0  0
  -20.2943    6.7410    1.7923 O   0  0  0  0  0  0  0  0  0  0  0  0
  -22.2494   11.0976   -2.4392 O   0  0  0  0  0  0  0  0  0  0  0  0
  -16.6241   11.3642   -4.3819 O   0  0  0  0  0  0  0  0  0  0  0  0
  -19.7129   10.0669   -3.0425 S   0  0  0  0  0  0  0  0  0  0  0  0
  -13.4072    9.6726   -1.2537 C   0  0  0  0  0  0  0  0  0  0  0  0
  -11.2341    6.4144    0.3924 C   0  0  0  0  0  0  0  0  0  0  0  0
  -13.2119    7.3135   -0.6496 C   0  0  0  0  0  0  0  0  0  0  0  0
   -9.4436    7.8500    0.8397 F   0  0  0  0  0  0  0  0  0  0  0  0
 17  1  1  0
 18  1  1  0
  1 31  1  1
  2 19  1  0
  2 30  1  0
  2 35  1  6
 21  3  1  0
  3 35  1  0
  4 21  1  0
 27  4  1  0
  5  6  2  0
 36  5  1  0
  5 38  1  0
  6  7  1  0
  7 37  2  0
  7 39  1  0
  8 37  1  0
 38  8  2  0
 10  9  2  0
  9 14  1  0
 10 11  1  0
 15 10  1  0
 11 12  2  0
 12 13  1  0
 14 13  2  0
 14 23  1  0
 16 15  2  0
 15 24  1  0
 26 16  1  0
 17 20  1  6
 30 17  1  0
 19 18  1  0
 18 26  1  1
 19 33  1  6
 20 32  1  0
 21 34  1  6
 22 27  1  0
 22 36  2  0
 24 25  2  0
 25 26  1  0
 27 28  1  0
 28 29  2  0
 29 36  1  0
M  END
$$$$
