
     RDKit          3D

 39 43  0  0  0  0  0  0  0  0999 V2000
  -24.7075    9.6361   -1.5839 C   0  0  1  0  0  0  0  0  0  0  0  0
  -22.2758    9.4832   -1.0733 C   0  0  1  0  0  0  0  0  0  0  0  0
  -20.0802    7.4477   -1.0932 C   0  0  0  0  0  0  0  0  0  0  0  0
  -17.7145    6.9194   -1.1713 C   0  0  0  0  0  0  0  0  0  0  0  0
  -13.0106    8.1753   -0.1441 C   0  0  0  0  0  0  0  0  0  0  0  0
  -12.4239    8.4652   -1.3531 C   0  0  0  0  0  0  0  0  0  0  0  0
  -11.1718    9.0527   -1.4328 C   0  0  0  0  0  0  0  0  0  0  0  0
  -11.0464    9.0819    0.9311 C   0  0  0  0  0  0  0  0  0  0  0  0
  -28.3237   10.4505    4.3260 C   0  0  0  0  0  0  0  0  0  0  0  0
  -28.2195    9.8082    3.1120 C   0  0  0  0  0  0  0  0  0  0  0  0
  -29.2000    8.9388    2.7423 C   0  0  0  0  0  0  0  0  0  0  0  0
  -30.2793    8.7154    3.5866 C   0  0  0  0  0  0  0  0  0  0  0  0
  -30.3874    9.3580    4.8054 C   0  0  0  0  0  0  0  0  0  0  0  0
  -29.3999   10.2376    5.1847 C   0  0  0  0  0  0  0  0  0  0  0  0
  -27.0699   10.0660    2.2472 C   0  0  0  0  0  0  0  0  0  0  0  0
  -26.4340    9.1689    1.4151 C   0  0  0  0  0  0  0  0  0  0  0  0
  -23.8463   10.7723   -2.0128 C   0  0  1  0  0  0  0  0  0  0  0  0
  -24.5027    9.1577   -0.1903 C   0  0  1  0  0  0  0  0  0  0  0  0
  -23.0435    9.2985    0.2428 C   0  0  1  0  0  0  0  0  0  0  0  0
  -24.5601   12.0969   -1.7760 C   0  0  0  0  0  0  0  0  0  0  0  0
  -18.8473    7.1859   -0.2158 C   0  0  2  0  0  0  0  0  0  0  0  0
  -15.3667    7.7605   -0.9598 C   0  0  0  0  0  0  0  0  0  0  0  0
  -29.5145   10.8606    6.3776 F   0  0  0  0  0  0  0  0  0  0  0  0
  -26.4001   11.2194    2.0841 N   0  0  0  0  0  0  0  0  0  0  0  0
  -25.4193   11.0334    1.2079 N   0  0  0  0  0  0  0  0  0  0  0  0
  -25.4024    9.7874    0.7702 N   0  0  0  0  0  0  0  0  0  0  0  0
  -16.4091    7.0397   -0.5662 N   0  0  0  0  0  0  0  0  0  0  0  0
  -16.0559    6.4053    0.5347 N   0  0  0  0  0  0  0  0  0  0  0  0
  -14.8092    6.7065    0.8518 N   0  0  0  0  0  0  0  0  0  0  0  0
  -22.5727   10.7716   -1.4982 O   0  0  0  0  0  0  0  0  0  0  0  0
  -26.0503   10.0687   -1.6787 O   0  0  0  0  0  0  0  0  0  0  0  0
  -24.5479   12.8859   -2.9283 O   0  0  0  0  0  0  0  0  0  0  0  0
  -22.5803    8.1729    0.8840 O   0  0  0  0  0  0  0  0  0  0  0  0
  -19.1140    6.0256    0.5091 O   0  0  0  0  0  0  0  0  0  0  0  0
  -20.5471    9.1680   -0.7702 S   0  0  0  0  0  0  0  0  0  0  0  0
  -14.3146    7.5626   -0.0571 C   0  0  0  0  0  0  0  0  0  0  0  0
  -10.4748    9.3650   -0.2914 C   0  0  0  0  0  0  0  0  0  0  0  0
  -12.3134    8.4877    0.9954 C   0  0  0  0  0  0  0  0  0  0  0  0
  -10.6134    9.3290   -2.6251 F   0  0  0  0  0  0  0  0  0  0  0  0
 17  1  1  0
 18  1  1  0
  1 31  1  1
  2 19  1  0
  2 30  1  0
  2 35  1  1
 21  3  1  0
  3 35  1  0
  4 21  1  0
 27  4  1  0
  5  6  2  0
 36  5  1  0
  5 38  1  0
  6  7  1  0
  7 37  2  0
  7 39  1  0
  8 37  1  0
 38  8  2  0
 10  9  2  0
  9 14  1  0
 10 11  1  0
 15 10  1  0
 11 12  2  0
 12 13  1  0
 14 13  2  0
 14 23  1  0
 16 15  2  0
 15 24  1  0
 26 16  1  0
 17 20  1  1
 30 17  1  0
 19 18  1  0
 18 26  1  1
 19 33  1  6
 20 32  1  0
 21 34  1  1
 22 27  1  0
 22 36  2  0
 24 25  2  0
 25 26  1  0
 27 28  1  0
 28 29  2  0
 29 36  1  0
M  END
$$$$
