
     RDKit          3D

 39 43  0  0  0  0  0  0  0  0999 V2000
  -24.6459    9.1840   -1.1831 C   0  0  1  0  0  0  0  0  0  0  0  0
  -22.2125    9.1488   -0.6593 C   0  0  1  0  0  0  0  0  0  0  0  0
  -19.7799    7.4905   -1.2044 C   0  0  0  0  0  0  0  0  0  0  0  0
  -17.4202    7.6966   -1.7253 C   0  0  0  0  0  0  0  0  0  0  0  0
  -13.0973    8.5986    0.5679 C   0  0  0  0  0  0  0  0  0  0  0  0
  -11.7489    8.4140    0.3741 C   0  0  0  0  0  0  0  0  0  0  0  0
  -10.8090    8.9420    1.2443 C   0  0  0  0  0  0  0  0  0  0  0  0
  -12.5533    9.8692    2.5492 C   0  0  0  0  0  0  0  0  0  0  0  0
  -28.4021   10.7120    4.4842 C   0  0  0  0  0  0  0  0  0  0  0  0
  -28.1268    9.7645    3.5232 C   0  0  0  0  0  0  0  0  0  0  0  0
  -28.9123    8.6547    3.4505 C   0  0  0  0  0  0  0  0  0  0  0  0
  -29.9685    8.4969    4.3379 C   0  0  0  0  0  0  0  0  0  0  0  0
  -30.2477    9.4453    5.3035 C   0  0  0  0  0  0  0  0  0  0  0  0
  -29.4577   10.5689    5.3820 C   0  0  0  0  0  0  0  0  0  0  0  0
  -27.0071    9.9616    2.6048 C   0  0  0  0  0  0  0  0  0  0  0  0
  -26.3359    8.9938    1.8877 C   0  0  0  0  0  0  0  0  0  0  0  0
  -23.8124   10.2885   -1.7326 C   0  0  1  0  0  0  0  0  0  0  0  0
  -24.4327    8.8646    0.2541 C   0  0  1  0  0  0  0  0  0  0  0  0
  -22.9787    9.0882    0.6692 C   0  0  1  0  0  0  0  0  0  0  0  0
  -24.5599   11.6125   -1.6405 C   0  0  0  0  0  0  0  0  0  0  0  0
  -18.3701    7.3012   -0.6258 C   0  0  2  0  0  0  0  0  0  0  0  0
  -15.4378    8.3890   -0.3633 C   0  0  0  0  0  0  0  0  0  0  0  0
  -29.7387   11.4900    6.3291 F   0  0  0  0  0  0  0  0  0  0  0  0
  -26.4047   11.1154    2.2711 N   0  0  0  0  0  0  0  0  0  0  0  0
  -25.4292   10.8631    1.4057 N   0  0  0  0  0  0  0  0  0  0  0  0
  -25.3504    9.5716    1.1409 N   0  0  0  0  0  0  0  0  0  0  0  0
  -16.0343    7.6896   -1.3204 N   0  0  0  0  0  0  0  0  0  0  0  0
  -15.1142    6.9340   -1.8875 N   0  0  0  0  0  0  0  0  0  0  0  0
  -13.9425    7.1369   -1.3120 N   0  0  0  0  0  0  0  0  0  0  0  0
  -22.5405   10.3756   -1.2211 O   0  0  0  0  0  0  0  0  0  0  0  0
  -25.9989    9.5697   -1.3239 O   0  0  0  0  0  0  0  0  0  0  0  0
  -24.8124   12.1350   -2.9108 O   0  0  0  0  0  0  0  0  0  0  0  0
  -22.4890    8.0507    1.4284 O   0  0  0  0  0  0  0  0  0  0  0  0
  -18.2256    5.9391   -0.3674 O   0  0  0  0  0  0  0  0  0  0  0  0
  -20.4771    8.9120   -0.3242 S   0  0  0  0  0  0  0  0  0  0  0  0
  -14.0795    8.0496   -0.3362 C   0  0  0  0  0  0  0  0  0  0  0  0
  -11.2049    9.6730    2.3375 C   0  0  0  0  0  0  0  0  0  0  0  0
  -13.4915    9.3289    1.6602 C   0  0  0  0  0  0  0  0  0  0  0  0
   -9.4934    8.7510    1.0385 F   0  0  0  0  0  0  0  0  0  0  0  0
 17  1  1  0
 18  1  1  0
  1 31  1  1
  2 19  1  0
  2 30  1  0
  2 35  1  1
 21  3  1  0
  3 35  1  0
  4 21  1  0
 27  4  1  0
  5  6  2  0
 36  5  1  0
  5 38  1  0
  6  7  1  0
  7 37  2  0
  7 39  1  0
  8 37  1  0
 38  8  2  0
 10  9  2  0
  9 14  1  0
 10 11  1  0
 15 10  1  0
 11 12  2  0
 12 13  1  0
 14 13  2  0
 14 23  1  0
 16 15  2  0
 15 24  1  0
 26 16  1  0
 17 20  1  1
 30 17  1  0
 19 18  1  0
 18 26  1  1
 19 33  1  1
 20 32  1  0
 21 34  1  6
 22 27  1  0
 22 36  2  0
 24 25  2  0
 25 26  1  0
 27 28  1  0
 28 29  2  0
 29 36  1  0
M  END
$$$$
