
     RDKit          3D

 39 43  0  0  0  0  0  0  0  0999 V2000
  -18.7452    7.2880   -1.2950 C   0  0  1  0  0  0  0  0  0  0  0  0
  -20.4941    8.9025   -0.5656 C   0  0  1  0  0  0  0  0  0  0  0  0
  -23.3799    9.5227   -1.0675 C   0  0  0  0  0  0  0  0  0  0  0  0
  -24.8362   10.5590    0.5718 C   0  0  0  0  0  0  0  0  0  0  0  0
  -29.0340    9.7668    3.1233 C   0  0  0  0  0  0  0  0  0  0  0  0
  -29.6103    8.6198    2.6313 C   0  0  0  0  0  0  0  0  0  0  0  0
  -30.9138    8.2683    2.9425 C   0  0  0  0  0  0  0  0  0  0  0  0
  -31.1139   10.2219    4.2647 C   0  0  0  0  0  0  0  0  0  0  0  0
  -12.5282    9.5049   -0.8311 C   0  0  0  0  0  0  0  0  0  0  0  0
  -13.7081    8.9566   -0.3791 C   0  0  0  0  0  0  0  0  0  0  0  0
  -13.6978    8.2359    0.7760 C   0  0  0  0  0  0  0  0  0  0  0  0
  -12.5094    8.0665    1.4737 C   0  0  0  0  0  0  0  0  0  0  0  0
  -11.3236    8.6150    1.0234 C   0  0  0  0  0  0  0  0  0  0  0  0
  -11.3274    9.3444   -0.1431 C   0  0  0  0  0  0  0  0  0  0  0  0
  -14.9415    9.1539   -1.1381 C   0  0  0  0  0  0  0  0  0  0  0  0
  -16.1738    8.5876   -0.8892 C   0  0  0  0  0  0  0  0  0  0  0  0
  -19.1358    7.2698    0.1415 C   0  0  1  0  0  0  0  0  0  0  0  0
  -18.4820    8.6311   -1.8780 C   0  0  1  0  0  0  0  0  0  0  0  0
  -19.3763    9.7004   -1.2508 C   0  0  1  0  0  0  0  0  0  0  0  0
  -17.9079    7.0764    1.0219 C   0  0  0  0  0  0  0  0  0  0  0  0
  -24.3871    9.2193    0.0513 C   0  0  2  0  0  0  0  0  0  0  0  0
  -27.0882   10.0419    1.5336 C   0  0  0  0  0  0  0  0  0  0  0  0
  -10.1635    9.8764   -0.5750 F   0  0  0  0  0  0  0  0  0  0  0  0
  -15.1296    9.9208   -2.2252 N   0  0  0  0  0  0  0  0  0  0  0  0
  -16.3968    9.8256   -2.6116 N   0  0  0  0  0  0  0  0  0  0  0  0
  -17.0761    9.0164   -1.8191 N   0  0  0  0  0  0  0  0  0  0  0  0
  -25.8342   10.4689    1.6113 N   0  0  0  0  0  0  0  0  0  0  0  0
  -25.6159   10.8232    2.8626 N   0  0  0  0  0  0  0  0  0  0  0  0
  -26.7050   10.6312    3.5853 N   0  0  0  0  0  0  0  0  0  0  0  0
  -19.9071    8.3287    0.5546 O   0  0  0  0  0  0  0  0  0  0  0  0
  -17.5482    6.5448   -1.4136 O   0  0  0  0  0  0  0  0  0  0  0  0
  -18.1215    6.0697    1.9660 O   0  0  0  0  0  0  0  0  0  0  0  0
  -19.9282   10.5359   -2.1942 O   0  0  0  0  0  0  0  0  0  0  0  0
  -23.6810    8.5551    1.0530 O   0  0  0  0  0  0  0  0  0  0  0  0
  -21.8516   10.0071   -0.2241 S   0  0  0  0  0  0  0  0  0  0  0  0
  -27.6765   10.1366    2.8008 C   0  0  0  0  0  0  0  0  0  0  0  0
  -31.6742    9.0670    3.7611 C   0  0  0  0  0  0  0  0  0  0  0  0
  -29.7945   10.5637    3.9409 C   0  0  0  0  0  0  0  0  0  0  0  0
  -31.4612    7.1418    2.4515 F   0  0  0  0  0  0  0  0  0  0  0  0
 17  1  1  0
 18  1  1  0
  1 31  1  1
  2 19  1  0
  2 30  1  0
  2 35  1  1
 21  3  1  0
  3 35  1  0
  4 21  1  0
 27  4  1  0
  5  6  2  0
 36  5  1  0
  5 38  1  0
  6  7  1  0
  7 37  2  0
  7 39  1  0
  8 37  1  0
 38  8  2  0
 10  9  2  0
  9 14  1  0
 10 11  1  0
 15 10  1  0
 11 12  2  0
 12 13  1  0
 14 13  2  0
 14 23  1  0
 16 15  2  0
 15 24  1  0
 26 16  1  0
 17 20  1  1
 30 17  1  0
 19 18  1  0
 18 26  1  1
 19 33  1  6
 20 32  1  0
 21 34  1  1
 22 27  1  0
 22 36  2  0
 24 25  2  0
 25 26  1  0
 27 28  1  0
 28 29  2  0
 29 36  1  0
M  END
$$$$
