
     RDKit          3D

 39 43  0  0  0  0  0  0  0  0999 V2000
  -24.5819    9.1184   -1.4337 C   0  0  1  0  0  0  0  0  0  0  0  0
  -22.2164    8.9362   -0.6800 C   0  0  1  0  0  0  0  0  0  0  0  0
  -20.0393    6.8866   -0.5244 C   0  0  0  0  0  0  0  0  0  0  0  0
  -17.8934    7.3951   -1.5335 C   0  0  0  0  0  0  0  0  0  0  0  0
  -13.2359    8.4263   -0.1177 C   0  0  0  0  0  0  0  0  0  0  0  0
  -13.3583    8.7944    1.2012 C   0  0  0  0  0  0  0  0  0  0  0  0
  -12.2793    9.2716    1.9273 C   0  0  0  0  0  0  0  0  0  0  0  0
  -10.9000    9.0270    0.0187 C   0  0  0  0  0  0  0  0  0  0  0  0
  -28.9604    8.3715    3.1713 C   0  0  0  0  0  0  0  0  0  0  0  0
  -28.4156    9.6286    3.0307 C   0  0  0  0  0  0  0  0  0  0  0  0
  -28.9924   10.6721    3.6883 C   0  0  0  0  0  0  0  0  0  0  0  0
  -30.1101   10.4547    4.4827 C   0  0  0  0  0  0  0  0  0  0  0  0
  -30.6596    9.1948    4.6263 C   0  0  0  0  0  0  0  0  0  0  0  0
  -30.0814    8.1363    3.9645 C   0  0  0  0  0  0  0  0  0  0  0  0
  -27.2386    9.8228    2.1862 C   0  0  0  0  0  0  0  0  0  0  0  0
  -26.5290    8.8540    1.5086 C   0  0  0  0  0  0  0  0  0  0  0  0
  -23.6492   10.2048   -1.8413 C   0  0  1  0  0  0  0  0  0  0  0  0
  -24.5266    8.7202   -0.0014 C   0  0  1  0  0  0  0  0  0  0  0  0
  -23.1122    8.8505    0.5632 C   0  0  1  0  0  0  0  0  0  0  0  0
  -24.3414   11.5586   -1.7522 C   0  0  0  0  0  0  0  0  0  0  0  0
  -18.5236    6.8446   -0.2816 C   0  0  2  0  0  0  0  0  0  0  0  0
  -15.7058    8.0808   -0.5292 C   0  0  0  0  0  0  0  0  0  0  0  0
  -30.6257    6.9089    4.1111 F   0  0  0  0  0  0  0  0  0  0  0  0
  -26.6096   10.9743    1.8968 N   0  0  0  0  0  0  0  0  0  0  0  0
  -25.5826   10.7198    1.0939 N   0  0  0  0  0  0  0  0  0  0  0  0
  -25.4947    9.4289    0.8287 N   0  0  0  0  0  0  0  0  0  0  0  0
  -16.4553    7.4997   -1.4573 N   0  0  0  0  0  0  0  0  0  0  0  0
  -15.6400    6.9958   -2.3631 N   0  0  0  0  0  0  0  0  0  0  0  0
  -14.3852    7.2434   -2.0320 N   0  0  0  0  0  0  0  0  0  0  0  0
  -22.4314   10.2035   -1.2056 O   0  0  0  0  0  0  0  0  0  0  0  0
  -25.8955    9.5778   -1.6840 O   0  0  0  0  0  0  0  0  0  0  0  0
  -24.2651   12.2416   -2.9680 O   0  0  0  0  0  0  0  0  0  0  0  0
  -22.7473    7.7545    1.3105 O   0  0  0  0  0  0  0  0  0  0  0  0
  -18.1786    5.5003   -0.1515 O   0  0  0  0  0  0  0  0  0  0  0  0
  -20.5352    8.5969   -0.1919 S   0  0  0  0  0  0  0  0  0  0  0  0
  -14.3579    7.9293   -0.8776 C   0  0  0  0  0  0  0  0  0  0  0  0
  -11.0431    9.3911    1.3410 C   0  0  0  0  0  0  0  0  0  0  0  0
  -12.0006    8.5461   -0.7023 C   0  0  0  0  0  0  0  0  0  0  0  0
  -12.4181    9.6272    3.2172 F   0  0  0  0  0  0  0  0  0  0  0  0
 17  1  1  0
 18  1  1  0
  1 31  1  1
  2 19  1  0
  2 30  1  0
  2 35  1  1
 21  3  1  0
  3 35  1  0
  4 21  1  0
 27  4  1  0
  5  6  2  0
 36  5  1  0
  5 38  1  0
  6  7  1  0
  7 37  2  0
  7 39  1  0
  8 37  1  0
 38  8  2  0
 10  9  2  0
  9 14  1  0
 10 11  1  0
 15 10  1  0
 11 12  2  0
 12 13  1  0
 14 13  2  0
 14 23  1  0
 16 15  2  0
 15 24  1  0
 26 16  1  0
 17 20  1  1
 30 17  1  0
 19 18  1  0
 18 26  1  1
 19 33  1  6
 20 32  1  0
 21 34  1  6
 22 27  1  0
 22 36  2  0
 24 25  2  0
 25 26  1  0
 27 28  1  0
 28 29  2  0
 29 36  1  0
M  END
$$$$
