
     RDKit          3D

 39 43  0  0  0  0  0  0  0  0999 V2000
  -22.3850   12.5298   -0.8376 C   0  0  1  0  0  0  0  0  0  0  0  0
  -21.0147   10.9995   -2.2439 C   0  0  1  0  0  0  0  0  0  0  0  0
  -20.7701    8.1006   -2.9514 C   0  0  0  0  0  0  0  0  0  0  0  0
  -19.6744    7.1456   -1.0099 C   0  0  0  0  0  0  0  0  0  0  0  0
  -15.4137    6.1837    1.3734 C   0  0  0  0  0  0  0  0  0  0  0  0
  -15.2404    7.2175    2.2629 C   0  0  0  0  0  0  0  0  0  0  0  0
  -14.0543    7.3892    2.9579 C   0  0  0  0  0  0  0  0  0  0  0  0
  -13.1613    5.4765    1.8860 C   0  0  0  0  0  0  0  0  0  0  0  0
  -19.9099   16.6948    3.0654 C   0  0  0  0  0  0  0  0  0  0  0  0
  -19.5419   16.9118    1.7560 C   0  0  0  0  0  0  0  0  0  0  0  0
  -18.8578   18.0474    1.4453 C   0  0  0  0  0  0  0  0  0  0  0  0
  -18.5449   18.9601    2.4437 C   0  0  0  0  0  0  0  0  0  0  0  0
  -18.9125   18.7458    3.7585 C   0  0  0  0  0  0  0  0  0  0  0  0
  -19.6038   17.6003    4.0789 C   0  0  0  0  0  0  0  0  0  0  0  0
  -19.8875   15.9307    0.7294 C   0  0  0  0  0  0  0  0  0  0  0  0
  -20.2792   14.6229    0.9233 C   0  0  0  0  0  0  0  0  0  0  0  0
  -22.6861   12.4876   -2.2950 C   0  0  1  0  0  0  0  0  0  0  0  0
  -20.9468   12.6472   -0.4761 C   0  0  1  0  0  0  0  0  0  0  0  0
  -20.0537   11.9242   -1.4842 C   0  0  1  0  0  0  0  0  0  0  0  0
  -22.9823   13.8882   -2.8155 C   0  0  0  0  0  0  0  0  0  0  0  0
  -19.6126    7.1912   -2.5137 C   0  0  2  0  0  0  0  0  0  0  0  0
  -17.5051    7.0287    0.2329 C   0  0  0  0  0  0  0  0  0  0  0  0
  -19.9587   17.3999    5.3667 F   0  0  0  0  0  0  0  0  0  0  0  0
  -19.8958   16.0971   -0.6039 N   0  0  0  0  0  0  0  0  0  0  0  0
  -20.2692   14.9613   -1.1824 N   0  0  0  0  0  0  0  0  0  0  0  0
  -20.5152   14.0272   -0.2817 N   0  0  0  0  0  0  0  0  0  0  0  0
  -18.5374    6.4924   -0.4055 N   0  0  0  0  0  0  0  0  0  0  0  0
  -18.3630    5.1852   -0.4076 N   0  0  0  0  0  0  0  0  0  0  0  0
  -17.2402    4.8762    0.2164 N   0  0  0  0  0  0  0  0  0  0  0  0
  -21.7580   11.8338   -3.0684 O   0  0  0  0  0  0  0  0  0  0  0  0
  -23.0381   13.6662   -0.3072 O   0  0  0  0  0  0  0  0  0  0  0  0
  -24.1505   13.9018   -3.5808 O   0  0  0  0  0  0  0  0  0  0  0  0
  -19.0845   11.1652   -0.8700 O   0  0  0  0  0  0  0  0  0  0  0  0
  -18.4361    7.8300   -2.9019 O   0  0  0  0  0  0  0  0  0  0  0  0
  -20.0553    9.7590   -3.0928 S   0  0  0  0  0  0  0  0  0  0  0  0
  -16.6477    6.0019    0.6471 C   0  0  0  0  0  0  0  0  0  0  0  0
  -13.0069    6.5200    2.7741 C   0  0  0  0  0  0  0  0  0  0  0  0
  -14.3668    5.3161    1.1907 C   0  0  0  0  0  0  0  0  0  0  0  0
  -13.9028    8.4070    3.8244 F   0  0  0  0  0  0  0  0  0  0  0  0
 17  1  1  0
 18  1  1  0
  1 31  1  6
  2 19  1  0
  2 30  1  0
  2 35  1  6
 21  3  1  0
  3 35  1  0
  4 21  1  0
 27  4  1  0
  5  6  2  0
 36  5  1  0
  5 38  1  0
  6  7  1  0
  7 37  2  0
  7 39  1  0
  8 37  1  0
 38  8  2  0
 10  9  2  0
  9 14  1  0
 10 11  1  0
 15 10  1  0
 11 12  2  0
 12 13  1  0
 14 13  2  0
 14 23  1  0
 16 15  2  0
 15 24  1  0
 26 16  1  0
 17 20  1  6
 30 17  1  0
 19 18  1  0
 18 26  1  6
 19 33  1  1
 20 32  1  0
 21 34  1  1
 22 27  1  0
 22 36  2  0
 24 25  2  0
 25 26  1  0
 27 28  1  0
 28 29  2  0
 29 36  1  0
M  END
$$$$
