
     RDKit          3D

 39 43  0  0  0  0  0  0  0  0999 V2000
  -25.0527    8.9456   -1.1892 C   0  0  1  0  0  0  0  0  0  0  0  0
  -22.6841    9.6961   -1.3427 C   0  0  1  0  0  0  0  0  0  0  0  0
  -20.1317    8.9857   -2.7371 C   0  0  0  0  0  0  0  0  0  0  0  0
  -18.6422    7.8209   -1.2183 C   0  0  0  0  0  0  0  0  0  0  0  0
  -13.8941    8.3302    0.1800 C   0  0  0  0  0  0  0  0  0  0  0  0
  -13.2069    8.2271    1.3662 C   0  0  0  0  0  0  0  0  0  0  0  0
  -11.9298    8.7431    1.5153 C   0  0  0  0  0  0  0  0  0  0  0  0
  -11.9819    9.4929   -0.7297 C   0  0  0  0  0  0  0  0  0  0  0  0
  -27.6320    9.5453    5.2270 C   0  0  0  0  0  0  0  0  0  0  0  0
  -27.3054    8.6901    4.1979 C   0  0  0  0  0  0  0  0  0  0  0  0
  -27.7332    7.3988    4.2558 C   0  0  0  0  0  0  0  0  0  0  0  0
  -28.4847    6.9683    5.3410 C   0  0  0  0  0  0  0  0  0  0  0  0
  -28.8143    7.8234    6.3754 C   0  0  0  0  0  0  0  0  0  0  0  0
  -28.3851    9.1294    6.3227 C   0  0  0  0  0  0  0  0  0  0  0  0
  -26.5125    9.1757    3.0703 C   0  0  0  0  0  0  0  0  0  0  0  0
  -25.8189    8.4180    2.1503 C   0  0  0  0  0  0  0  0  0  0  0  0
  -24.7847   10.2183   -1.9135 C   0  0  1  0  0  0  0  0  0  0  0  0
  -24.3781    8.7951    0.1281 C   0  0  1  0  0  0  0  0  0  0  0  0
  -23.0126    9.4820    0.1412 C   0  0  1  0  0  0  0  0  0  0  0  0
  -25.8575   11.2493   -1.5878 C   0  0  0  0  0  0  0  0  0  0  0  0
  -18.6661    8.8769   -2.2914 C   0  0  2  0  0  0  0  0  0  0  0  0
  -16.2606    8.3947   -0.7056 C   0  0  0  0  0  0  0  0  0  0  0  0
  -28.7124    9.9574    7.3385 F   0  0  0  0  0  0  0  0  0  0  0  0
  -26.2967   10.4488    2.6986 N   0  0  0  0  0  0  0  0  0  0  0  0
  -25.5208   10.4624    1.6207 N   0  0  0  0  0  0  0  0  0  0  0  0
  -25.2024    9.2359    1.2483 N   0  0  0  0  0  0  0  0  0  0  0  0
  -17.3371    7.6221   -0.6336 N   0  0  0  0  0  0  0  0  0  0  0  0
  -17.0207    6.5737    0.1011 N   0  0  0  0  0  0  0  0  0  0  0  0
  -15.7641    6.6613    0.4995 N   0  0  0  0  0  0  0  0  0  0  0  0
  -23.5170   10.7252   -1.7621 O   0  0  0  0  0  0  0  0  0  0  0  0
  -26.4449    8.8848   -0.9493 O   0  0  0  0  0  0  0  0  0  0  0  0
  -26.6940   11.4661   -2.6850 O   0  0  0  0  0  0  0  0  0  0  0  0
  -22.0396    8.6946    0.7121 O   0  0  0  0  0  0  0  0  0  0  0  0
  -18.3293   10.1065   -1.7277 O   0  0  0  0  0  0  0  0  0  0  0  0
  -20.9388   10.0282   -1.4948 S   0  0  0  0  0  0  0  0  0  0  0  0
  -15.2249    7.7945    0.0211 C   0  0  0  0  0  0  0  0  0  0  0  0
  -11.3088    9.3794    0.4685 C   0  0  0  0  0  0  0  0  0  0  0  0
  -13.2728    8.9660   -0.8649 C   0  0  0  0  0  0  0  0  0  0  0  0
  -11.2726    8.6328    2.6839 F   0  0  0  0  0  0  0  0  0  0  0  0
 17  1  1  0
 18  1  1  0
  1 31  1  1
  2 19  1  0
  2 30  1  0
  2 35  1  1
 21  3  1  0
  3 35  1  0
  4 21  1  0
 27  4  1  0
  5  6  2  0
 36  5  1  0
  5 38  1  0
  6  7  1  0
  7 37  2  0
  7 39  1  0
  8 37  1  0
 38  8  2  0
 10  9  2  0
  9 14  1  0
 10 11  1  0
 15 10  1  0
 11 12  2  0
 12 13  1  0
 14 13  2  0
 14 23  1  0
 16 15  2  0
 15 24  1  0
 26 16  1  0
 17 20  1  1
 30 17  1  0
 19 18  1  0
 18 26  1  1
 19 33  1  6
 20 32  1  0
 21 34  1  1
 22 27  1  0
 22 36  2  0
 24 25  2  0
 25 26  1  0
 27 28  1  0
 28 29  2  0
 29 36  1  0
M  END
$$$$
