
     RDKit          3D

 39 43  0  0  0  0  0  0  0  0999 V2000
  -18.9265    7.1003   -1.1391 C   0  0  1  0  0  0  0  0  0  0  0  0
  -20.5069    8.8958   -0.4494 C   0  0  1  0  0  0  0  0  0  0  0  0
  -23.3619    9.7528   -0.7302 C   0  0  0  0  0  0  0  0  0  0  0  0
  -25.6824   10.4388   -0.5669 C   0  0  0  0  0  0  0  0  0  0  0  0
  -28.5069    9.1566    3.3238 C   0  0  0  0  0  0  0  0  0  0  0  0
  -27.8875    8.0511    3.8569 C   0  0  0  0  0  0  0  0  0  0  0  0
  -28.4680    7.3106    4.8738 C   0  0  0  0  0  0  0  0  0  0  0  0
  -30.3305    8.7721    4.8609 C   0  0  0  0  0  0  0  0  0  0  0  0
  -12.9943    8.2402   -2.6426 C   0  0  0  0  0  0  0  0  0  0  0  0
  -13.2786    8.5053   -1.3213 C   0  0  0  0  0  0  0  0  0  0  0  0
  -12.2503    8.7631   -0.4668 C   0  0  0  0  0  0  0  0  0  0  0  0
  -10.9437    8.7548   -0.9363 C   0  0  0  0  0  0  0  0  0  0  0  0
  -10.6545    8.4892   -2.2613 C   0  0  0  0  0  0  0  0  0  0  0  0
  -11.6891    8.2280   -3.1296 C   0  0  0  0  0  0  0  0  0  0  0  0
  -14.6653    8.5059   -0.8598 C   0  0  0  0  0  0  0  0  0  0  0  0
  -15.8033    8.4571   -1.6371 C   0  0  0  0  0  0  0  0  0  0  0  0
  -19.6862    6.8938    0.1245 C   0  0  1  0  0  0  0  0  0  0  0  0
  -18.2923    8.4359   -1.3031 C   0  0  1  0  0  0  0  0  0  0  0  0
  -19.1275    9.5377   -0.6512 C   0  0  1  0  0  0  0  0  0  0  0  0
  -18.7916    6.2624    1.1833 C   0  0  0  0  0  0  0  0  0  0  0  0
  -24.2879   10.8392   -0.1640 C   0  0  2  0  0  0  0  0  0  0  0  0
  -26.9449    9.4601    1.3599 C   0  0  0  0  0  0  0  0  0  0  0  0
  -11.3963    7.9695   -4.4227 F   0  0  0  0  0  0  0  0  0  0  0  0
  -15.1157    8.5531    0.4053 N   0  0  0  0  0  0  0  0  0  0  0  0
  -16.4438    8.5342    0.3958 N   0  0  0  0  0  0  0  0  0  0  0  0
  -16.9099    8.4754   -0.8386 N   0  0  0  0  0  0  0  0  0  0  0  0
  -26.6230   10.4431    0.5285 N   0  0  0  0  0  0  0  0  0  0  0  0
  -27.3356   11.4983    0.8718 N   0  0  0  0  0  0  0  0  0  0  0  0
  -28.1059   11.2089    1.9054 N   0  0  0  0  0  0  0  0  0  0  0  0
  -20.3490    7.9993    0.5994 O   0  0  0  0  0  0  0  0  0  0  0  0
  -17.8858    6.1435   -1.1638 O   0  0  0  0  0  0  0  0  0  0  0  0
  -19.4588    5.2365    1.8564 O   0  0  0  0  0  0  0  0  0  0  0  0
  -19.2554   10.6421   -1.4616 O   0  0  0  0  0  0  0  0  0  0  0  0
  -23.9503   12.0267   -0.8112 O   0  0  0  0  0  0  0  0  0  0  0  0
  -21.6985   10.1909   -0.1623 S   0  0  0  0  0  0  0  0  0  0  0  0
  -27.9056    9.9301    2.2639 C   0  0  0  0  0  0  0  0  0  0  0  0
  -29.6932    7.6661    5.3825 C   0  0  0  0  0  0  0  0  0  0  0  0
  -29.7306    9.5107    3.8328 C   0  0  0  0  0  0  0  0  0  0  0  0
  -27.8470    6.2314    5.3831 F   0  0  0  0  0  0  0  0  0  0  0  0
 17  1  1  0
 18  1  1  0
  1 31  1  1
  2 19  1  0
  2 30  1  0
  2 35  1  1
 21  3  1  0
  3 35  1  0
  4 21  1  0
 27  4  1  0
  5  6  2  0
 36  5  1  0
  5 38  1  0
  6  7  1  0
  7 37  2  0
  7 39  1  0
  8 37  1  0
 38  8  2  0
 10  9  2  0
  9 14  1  0
 10 11  1  0
 15 10  1  0
 11 12  2  0
 12 13  1  0
 14 13  2  0
 14 23  1  0
 16 15  2  0
 15 24  1  0
 26 16  1  0
 17 20  1  1
 30 17  1  0
 19 18  1  0
 18 26  1  1
 19 33  1  6
 20 32  1  0
 21 34  1  6
 22 27  1  0
 22 36  2  0
 24 25  2  0
 25 26  1  0
 27 28  1  0
 28 29  2  0
 29 36  1  0
M  END
$$$$
