
     RDKit          3D

 36 41  0  0  0  0  0  0  0  0999 V2000
  135.5980  -42.9618  267.0739 C   0  0  0  0  0  0  0  0  0  0  0  0
  134.9151  -42.0533  268.1106 C   0  0  0  0  0  0  0  0  0  0  0  0
  135.6558  -40.8312  268.1054 N   0  0  2  0  0  4  0  0  0  0  0  0
  134.7913  -39.6731  267.9594 C   0  0  0  0  0  0  0  0  0  0  0  0
  136.6601  -40.8871  267.0680 C   0  0  0  0  0  0  0  0  0  0  0  0
  136.1197  -41.9055  266.1266 C   0  0  1  0  0  0  0  0  0  0  0  0
  137.1067  -42.3996  265.1898 N   0  0  0  0  0  0  0  0  0  0  0  0
  138.2675  -41.6628  264.8278 C   0  0  0  0  0  0  0  0  0  0  0  0
  138.2053  -40.4468  265.1081 O   0  0  0  0  0  0  0  0  0  0  0  0
  139.4465  -42.2124  264.1901 C   0  0  0  0  0  0  0  0  0  0  0  0
  139.2214  -43.3446  263.3925 C   0  0  0  0  0  0  0  0  0  0  0  0
  140.3291  -43.9105  262.7779 C   0  0  0  0  0  0  0  0  0  0  0  0
  141.5549  -43.3951  262.9421 N   0  0  0  0  0  0  0  0  0  0  0  0
  141.8025  -42.3282  263.6872 C   0  0  0  0  0  0  0  0  0  0  0  0
  140.7055  -41.7116  264.3371 C   0  0  0  0  0  0  0  0  0  0  0  0
  140.9489  -40.5679  265.1213 N   0  0  0  0  0  0  0  0  0  0  0  0
  142.2565  -40.4148  265.7481 C   0  0  0  0  0  0  0  0  0  0  0  0
  142.5469  -39.3186  266.5261 C   0  0  0  0  0  0  0  0  0  0  0  0
  143.2240  -41.3843  265.5877 C   0  0  0  0  0  0  0  0  0  0  0  0
  144.4662  -41.2442  266.2076 C   0  0  0  0  0  0  0  0  0  0  0  0
  145.4144  -42.1956  266.0552 N   0  0  0  0  0  0  0  0  0  0  0  0
  146.6189  -42.0939  266.6414 C   0  0  0  0  0  0  0  0  0  0  0  0
  146.8576  -40.9610  267.4192 C   0  0  0  0  0  0  0  0  0  0  0  0
  145.9328  -39.9918  267.5919 N   0  0  0  0  0  0  0  0  0  0  0  0
  144.7356  -40.1463  266.9783 C   0  0  0  0  0  0  0  0  0  0  0  0
  143.7756  -39.1648  267.1483 C   0  0  0  0  0  0  0  0  0  0  0  0
  144.0421  -37.9939  267.9657 C   0  0  0  0  0  0  0  0  0  0  0  0
  144.5669  -36.8222  267.4811 C   0  0  0  0  0  0  0  0  0  0  0  0
  144.8051  -35.7089  268.2819 C   0  0  0  0  0  0  0  0  0  0  0  0
  145.3038  -34.4879  268.0103 N   0  0  0  0  0  0  0  0  0  0  0  0
  145.7213  -34.1029  266.6749 C   0  0  0  0  0  0  0  0  0  0  0  0
  145.3422  -33.7438  269.1265 C   0  0  0  0  0  0  0  0  0  0  0  0
  144.8461  -34.5365  270.1375 C   0  0  0  0  0  0  0  0  0  0  0  0
  144.5011  -35.7825  269.6243 C   0  0  0  0  0  0  0  0  0  0  0  0
  143.9771  -36.9322  270.1451 C   0  0  0  0  0  0  0  0  0  0  0  0
  143.7505  -38.0304  269.3149 C   0  0  0  0  0  0  0  0  0  0  0  0
  1  2  1  0
  1  6  1  0
  2  3  1  0
  3  4  1  6
  3  5  1  0
  5  6  1  0
  6  7  1  6
  7  8  1  0
  8  9  2  0
  8 10  1  0
 10 11  2  0
 10 15  1  0
 11 12  1  0
 12 13  2  0
 13 14  1  0
 14 15  2  0
 15 16  1  0
 16 17  1  0
 17 18  2  0
 17 19  1  0
 18 26  1  0
 19 20  2  0
 20 21  1  0
 20 25  1  0
 21 22  2  0
 22 23  1  0
 23 24  2  0
 24 25  1  0
 25 26  2  0
 26 27  1  0
 27 28  2  0
 27 36  1  0
 28 29  1  0
 29 30  1  0
 29 34  2  0
 30 31  1  0
 30 32  1  0
 32 33  2  0
 33 34  1  0
 34 35  1  0
 35 36  2  0
M  CHG  1   3   1
M  END
$$$$
