
     RDKit          3D

 36 41  0  0  0  0  0  0  0  0999 V2000
  136.5670  -44.5422  266.7052 C   0  0  0  0  0  0  0  0  0  0  0  0
  135.7409  -44.2771  267.9755 C   0  0  0  0  0  0  0  0  0  0  0  0
  135.9239  -42.8923  268.2771 N   0  0  2  0  0  4  0  0  0  0  0  0
  134.6585  -42.2103  268.4857 C   0  0  0  0  0  0  0  0  0  0  0  0
  136.7013  -42.2747  267.2272 C   0  0  0  0  0  0  0  0  0  0  0  0
  136.4780  -43.1762  266.0641 C   0  0  1  0  0  0  0  0  0  0  0  0
  137.4292  -42.9730  264.9918 N   0  0  0  0  0  0  0  0  0  0  0  0
  138.8302  -42.8676  265.2093 C   0  0  0  0  0  0  0  0  0  0  0  0
  139.1563  -42.8376  266.4151 O   0  0  0  0  0  0  0  0  0  0  0  0
  139.8386  -42.7971  264.1716 C   0  0  0  0  0  0  0  0  0  0  0  0
  139.5953  -43.5995  263.0466 C   0  0  0  0  0  0  0  0  0  0  0  0
  140.5472  -43.5723  262.0376 C   0  0  0  0  0  0  0  0  0  0  0  0
  141.6464  -42.8126  262.1385 N   0  0  0  0  0  0  0  0  0  0  0  0
  141.9067  -42.0439  263.1854 C   0  0  0  0  0  0  0  0  0  0  0  0
  140.9662  -42.0349  264.2442 C   0  0  0  0  0  0  0  0  0  0  0  0
  141.2203  -41.2124  265.3582 N   0  0  0  0  0  0  0  0  0  0  0  0
  142.5977  -40.8298  265.6456 C   0  0  0  0  0  0  0  0  0  0  0  0
  142.8909  -39.6227  266.2357 C   0  0  0  0  0  0  0  0  0  0  0  0
  143.6358  -41.6874  265.3480 C   0  0  0  0  0  0  0  0  0  0  0  0
  144.9504  -41.3264  265.6451 C   0  0  0  0  0  0  0  0  0  0  0  0
  145.9690  -42.1676  265.3582 N   0  0  0  0  0  0  0  0  0  0  0  0
  147.2454  -41.8530  265.6348 C   0  0  0  0  0  0  0  0  0  0  0  0
  147.4833  -40.6159  266.2337 C   0  0  0  0  0  0  0  0  0  0  0  0
  146.4892  -39.7519  266.5332 N   0  0  0  0  0  0  0  0  0  0  0  0
  145.2215  -40.1210  266.2329 C   0  0  0  0  0  0  0  0  0  0  0  0
  144.1911  -39.2495  266.5371 C   0  0  0  0  0  0  0  0  0  0  0  0
  144.4591  -37.9670  267.1644 C   0  0  0  0  0  0  0  0  0  0  0  0
  143.7459  -37.4666  268.2247 C   0  0  0  0  0  0  0  0  0  0  0  0
  144.0269  -36.2385  268.8163 C   0  0  0  0  0  0  0  0  0  0  0  0
  143.4611  -35.5777  269.8443 N   0  0  0  0  0  0  0  0  0  0  0  0
  142.3311  -36.1142  270.5798 C   0  0  0  0  0  0  0  0  0  0  0  0
  144.0912  -34.4106  270.0484 C   0  0  0  0  0  0  0  0  0  0  0  0
  145.0929  -34.3413  269.1060 C   0  0  0  0  0  0  0  0  0  0  0  0
  145.0690  -35.4869  268.3173 C   0  0  0  0  0  0  0  0  0  0  0  0
  145.8029  -35.9507  267.2619 C   0  0  0  0  0  0  0  0  0  0  0  0
  145.4951  -37.1862  266.6914 C   0  0  0  0  0  0  0  0  0  0  0  0
  1  2  1  0
  1  6  1  0
  2  3  1  0
  3  4  1  6
  3  5  1  0
  5  6  1  0
  6  7  1  6
  7  8  1  0
  8  9  2  0
  8 10  1  0
 10 11  2  0
 10 15  1  0
 11 12  1  0
 12 13  2  0
 13 14  1  0
 14 15  2  0
 15 16  1  0
 16 17  1  0
 17 18  2  0
 17 19  1  0
 18 26  1  0
 19 20  2  0
 20 21  1  0
 20 25  1  0
 21 22  2  0
 22 23  1  0
 23 24  2  0
 24 25  1  0
 25 26  2  0
 26 27  1  0
 27 28  2  0
 27 36  1  0
 28 29  1  0
 29 30  1  0
 29 34  2  0
 30 31  1  0
 30 32  1  0
 32 33  2  0
 33 34  1  0
 34 35  1  0
 35 36  2  0
M  CHG  1   3   1
M  END
$$$$
