
     RDKit          3D

 36 41  0  0  0  0  0  0  0  0999 V2000
  135.4413  -44.2612  265.9232 C   0  0  0  0  0  0  0  0  0  0  0  0
  135.0518  -44.3407  267.4092 C   0  0  0  0  0  0  0  0  0  0  0  0
  136.2298  -43.9928  268.1397 N   0  0  2  0  0  4  0  0  0  0  0  0
  135.9699  -42.9625  269.1301 C   0  0  0  0  0  0  0  0  0  0  0  0
  137.2662  -43.5991  267.2130 C   0  0  0  0  0  0  0  0  0  0  0  0
  136.5022  -43.1874  266.0038 C   0  0  1  0  0  0  0  0  0  0  0  0
  137.3223  -43.0884  264.8149 N   0  0  0  0  0  0  0  0  0  0  0  0
  138.3435  -42.1117  264.6580 C   0  0  0  0  0  0  0  0  0  0  0  0
  138.2249  -41.1263  265.4171 O   0  0  0  0  0  0  0  0  0  0  0  0
  139.4465  -42.1923  263.7223 C   0  0  0  0  0  0  0  0  0  0  0  0
  139.2216  -43.0070  262.6023 C   0  0  0  0  0  0  0  0  0  0  0  0
  140.2612  -43.1232  261.6909 C   0  0  0  0  0  0  0  0  0  0  0  0
  141.4243  -42.4846  261.8770 N   0  0  0  0  0  0  0  0  0  0  0  0
  141.6696  -41.7083  262.9220 C   0  0  0  0  0  0  0  0  0  0  0  0
  140.6407  -41.5553  263.8831 C   0  0  0  0  0  0  0  0  0  0  0  0
  140.8796  -40.7223  264.9926 N   0  0  0  0  0  0  0  0  0  0  0  0
  142.2561  -40.5103  265.4247 C   0  0  0  0  0  0  0  0  0  0  0  0
  142.6313  -39.3468  266.0546 C   0  0  0  0  0  0  0  0  0  0  0  0
  143.2072  -41.4891  265.2267 C   0  0  0  0  0  0  0  0  0  0  0  0
  144.5180  -41.2908  265.6617 C   0  0  0  0  0  0  0  0  0  0  0  0
  145.4508  -42.2508  265.4726 N   0  0  0  0  0  0  0  0  0  0  0  0
  146.7204  -42.0940  265.8828 C   0  0  0  0  0  0  0  0  0  0  0  0
  147.0438  -40.8940  266.5161 C   0  0  0  0  0  0  0  0  0  0  0  0
  146.1366  -39.9143  266.7206 N   0  0  0  0  0  0  0  0  0  0  0  0
  144.8715  -40.1263  266.2871 C   0  0  0  0  0  0  0  0  0  0  0  0
  143.9289  -39.1347  266.4925 C   0  0  0  0  0  0  0  0  0  0  0  0
  144.2846  -37.8932  267.1577 C   0  0  0  0  0  0  0  0  0  0  0  0
  143.6202  -37.3877  268.2467 C   0  0  0  0  0  0  0  0  0  0  0  0
  143.9849  -36.2000  268.8742 C   0  0  0  0  0  0  0  0  0  0  0  0
  143.4769  -35.5423  269.9337 N   0  0  0  0  0  0  0  0  0  0  0  0
  142.3280  -36.0345  270.6708 C   0  0  0  0  0  0  0  0  0  0  0  0
  144.1803  -34.4231  270.1656 C   0  0  0  0  0  0  0  0  0  0  0  0
  145.1693  -34.3820  269.2082 C   0  0  0  0  0  0  0  0  0  0  0  0
  145.0630  -35.4960  268.3820 C   0  0  0  0  0  0  0  0  0  0  0  0
  145.7504  -35.9665  267.2987 C   0  0  0  0  0  0  0  0  0  0  0  0
  145.3588  -37.1607  266.6927 C   0  0  0  0  0  0  0  0  0  0  0  0
  1  2  1  0
  1  6  1  0
  2  3  1  0
  3  4  1  1
  3  5  1  0
  5  6  1  0
  6  7  1  6
  7  8  1  0
  8  9  2  0
  8 10  1  0
 10 11  2  0
 10 15  1  0
 11 12  1  0
 12 13  2  0
 13 14  1  0
 14 15  2  0
 15 16  1  0
 16 17  1  0
 17 18  2  0
 17 19  1  0
 18 26  1  0
 19 20  2  0
 20 21  1  0
 20 25  1  0
 21 22  2  0
 22 23  1  0
 23 24  2  0
 24 25  1  0
 25 26  2  0
 26 27  1  0
 27 28  2  0
 27 36  1  0
 28 29  1  0
 29 30  1  0
 29 34  2  0
 30 31  1  0
 30 32  1  0
 32 33  2  0
 33 34  1  0
 34 35  1  0
 35 36  2  0
M  CHG  1   3   1
M  END
$$$$
