
     RDKit          3D

 36 41  0  0  0  0  0  0  0  0999 V2000
  135.0916  -41.4732  266.3289 C   0  0  0  0  0  0  0  0  0  0  0  0
  134.2356  -42.0893  267.4488 C   0  0  0  0  0  0  0  0  0  0  0  0
  134.6437  -43.4556  267.5439 N   0  0  2  0  0  4  0  0  0  0  0  0
  134.9611  -43.8335  268.9101 C   0  0  0  0  0  0  0  0  0  0  0  0
  135.7561  -43.6839  266.6503 C   0  0  0  0  0  0  0  0  0  0  0  0
  136.3331  -42.3236  266.4717 C   0  0  1  0  0  0  0  0  0  0  0  0
  137.2368  -42.2288  265.3448 N   0  0  0  0  0  0  0  0  0  0  0  0
  138.4815  -42.9138  265.2908 C   0  0  0  0  0  0  0  0  0  0  0  0
  138.7318  -43.5937  266.3089 O   0  0  0  0  0  0  0  0  0  0  0  0
  139.4183  -42.8685  264.1867 C   0  0  0  0  0  0  0  0  0  0  0  0
  139.1471  -43.7584  263.1363 C   0  0  0  0  0  0  0  0  0  0  0  0
  140.0317  -43.7569  262.0674 C   0  0  0  0  0  0  0  0  0  0  0  0
  141.0943  -42.9410  262.0448 N   0  0  0  0  0  0  0  0  0  0  0  0
  141.3793  -42.0894  263.0186 C   0  0  0  0  0  0  0  0  0  0  0  0
  140.5074  -42.0508  264.1340 C   0  0  0  0  0  0  0  0  0  0  0  0
  140.7876  -41.1412  265.1714 N   0  0  0  0  0  0  0  0  0  0  0  0
  142.1801  -40.8276  265.4696 C   0  0  0  0  0  0  0  0  0  0  0  0
  142.5281  -39.6378  266.0651 C   0  0  0  0  0  0  0  0  0  0  0  0
  143.1768  -41.7346  265.1771 C   0  0  0  0  0  0  0  0  0  0  0  0
  144.5054  -41.4395  265.4846 C   0  0  0  0  0  0  0  0  0  0  0  0
  145.4834  -42.3292  265.2027 N   0  0  0  0  0  0  0  0  0  0  0  0
  146.7717  -42.0785  265.4893 C   0  0  0  0  0  0  0  0  0  0  0  0
  147.0659  -40.8561  266.0932 C   0  0  0  0  0  0  0  0  0  0  0  0
  146.1133  -39.9449  266.3880 N   0  0  0  0  0  0  0  0  0  0  0  0
  144.8312  -40.2503  266.0776 C   0  0  0  0  0  0  0  0  0  0  0  0
  143.8428  -39.3298  266.3768 C   0  0  0  0  0  0  0  0  0  0  0  0
  144.1691  -38.0635  267.0095 C   0  0  0  0  0  0  0  0  0  0  0  0
  143.5203  -37.5660  268.1116 C   0  0  0  0  0  0  0  0  0  0  0  0
  143.8566  -36.3538  268.7072 C   0  0  0  0  0  0  0  0  0  0  0  0
  143.3569  -35.6984  269.7722 N   0  0  0  0  0  0  0  0  0  0  0  0
  142.2536  -36.2234  270.5549 C   0  0  0  0  0  0  0  0  0  0  0  0
  144.0213  -34.5480  269.9623 C   0  0  0  0  0  0  0  0  0  0  0  0
  144.9762  -34.4840  268.9722 C   0  0  0  0  0  0  0  0  0  0  0  0
  144.8885  -35.6158  268.1682 C   0  0  0  0  0  0  0  0  0  0  0  0
  145.5590  -36.0774  267.0705 C   0  0  0  0  0  0  0  0  0  0  0  0
  145.1969  -37.2967  266.4973 C   0  0  0  0  0  0  0  0  0  0  0  0
  1  2  1  0
  1  6  1  0
  2  3  1  0
  3  4  1  1
  3  5  1  0
  5  6  1  0
  6  7  1  6
  7  8  1  0
  8  9  2  0
  8 10  1  0
 10 11  2  0
 10 15  1  0
 11 12  1  0
 12 13  2  0
 13 14  1  0
 14 15  2  0
 15 16  1  0
 16 17  1  0
 17 18  2  0
 17 19  1  0
 18 26  1  0
 19 20  2  0
 20 21  1  0
 20 25  1  0
 21 22  2  0
 22 23  1  0
 23 24  2  0
 24 25  1  0
 25 26  2  0
 26 27  1  0
 27 28  2  0
 27 36  1  0
 28 29  1  0
 29 30  1  0
 29 34  2  0
 30 31  1  0
 30 32  1  0
 32 33  2  0
 33 34  1  0
 34 35  1  0
 35 36  2  0
M  CHG  1   3   1
M  END
$$$$
