
     RDKit          3D

 36 41  0  0  0  0  0  0  0  0999 V2000
  136.4280  -43.8375  266.9333 C   0  0  0  0  0  0  0  0  0  0  0  0
  135.4656  -43.4320  268.0629 C   0  0  0  0  0  0  0  0  0  0  0  0
  135.2678  -42.0240  267.9191 N   0  0  2  0  0  4  0  0  0  0  0  0
  133.8586  -41.6717  267.9121 C   0  0  0  0  0  0  0  0  0  0  0  0
  135.9424  -41.5674  266.7256 C   0  0  0  0  0  0  0  0  0  0  0  0
  136.0458  -42.8019  265.9006 C   0  0  1  0  0  0  0  0  0  0  0  0
  136.9946  -42.6858  264.8134 N   0  0  0  0  0  0  0  0  0  0  0  0
  138.2849  -42.1096  264.9701 C   0  0  0  0  0  0  0  0  0  0  0  0
  138.3991  -41.3873  265.9833 O   0  0  0  0  0  0  0  0  0  0  0  0
  139.4059  -42.3027  264.0730 C   0  0  0  0  0  0  0  0  0  0  0  0
  139.1738  -43.1867  263.0085 C   0  0  0  0  0  0  0  0  0  0  0  0
  140.2294  -43.4111  262.1364 C   0  0  0  0  0  0  0  0  0  0  0  0
  141.4137  -42.8084  262.3081 N   0  0  0  0  0  0  0  0  0  0  0  0
  141.6664  -41.9689  263.3011 C   0  0  0  0  0  0  0  0  0  0  0  0
  140.6218  -41.7048  264.2203 C   0  0  0  0  0  0  0  0  0  0  0  0
  140.8690  -40.8038  265.2736 N   0  0  0  0  0  0  0  0  0  0  0  0
  142.2498  -40.5496  265.6672 C   0  0  0  0  0  0  0  0  0  0  0  0
  142.5926  -39.4126  266.3607 C   0  0  0  0  0  0  0  0  0  0  0  0
  143.2392  -41.4623  265.3673 C   0  0  0  0  0  0  0  0  0  0  0  0
  144.5553  -41.2253  265.7655 C   0  0  0  0  0  0  0  0  0  0  0  0
  145.5259  -42.1209  265.4763 N   0  0  0  0  0  0  0  0  0  0  0  0
  146.8019  -41.9258  265.8485 C   0  0  0  0  0  0  0  0  0  0  0  0
  147.0913  -40.7553  266.5498 C   0  0  0  0  0  0  0  0  0  0  0  0
  146.1459  -39.8399  266.8546 N   0  0  0  0  0  0  0  0  0  0  0  0
  144.8761  -40.0882  266.4554 C   0  0  0  0  0  0  0  0  0  0  0  0
  143.8949  -39.1628  266.7632 C   0  0  0  0  0  0  0  0  0  0  0  0
  144.2157  -37.9514  267.4979 C   0  0  0  0  0  0  0  0  0  0  0  0
  143.5363  -37.5259  268.6117 C   0  0  0  0  0  0  0  0  0  0  0  0
  143.8677  -36.3658  269.3057 C   0  0  0  0  0  0  0  0  0  0  0  0
  143.3404  -35.7825  270.3989 N   0  0  0  0  0  0  0  0  0  0  0  0
  142.2043  -36.3464  271.1039 C   0  0  0  0  0  0  0  0  0  0  0  0
  144.0127  -34.6595  270.6952 C   0  0  0  0  0  0  0  0  0  0  0  0
  145.0016  -34.5380  269.7446 C   0  0  0  0  0  0  0  0  0  0  0  0
  144.9268  -35.6064  268.8570 C   0  0  0  0  0  0  0  0  0  0  0  0
  145.6284  -35.9966  267.7510 C   0  0  0  0  0  0  0  0  0  0  0  0
  145.2702  -37.1651  267.0779 C   0  0  0  0  0  0  0  0  0  0  0  0
  1  2  1  0
  1  6  1  0
  2  3  1  0
  3  4  1  6
  3  5  1  0
  5  6  1  0
  6  7  1  6
  7  8  1  0
  8  9  2  0
  8 10  1  0
 10 11  2  0
 10 15  1  0
 11 12  1  0
 12 13  2  0
 13 14  1  0
 14 15  2  0
 15 16  1  0
 16 17  1  0
 17 18  2  0
 17 19  1  0
 18 26  1  0
 19 20  2  0
 20 21  1  0
 20 25  1  0
 21 22  2  0
 22 23  1  0
 23 24  2  0
 24 25  1  0
 25 26  2  0
 26 27  1  0
 27 28  2  0
 27 36  1  0
 28 29  1  0
 29 30  1  0
 29 34  2  0
 30 31  1  0
 30 32  1  0
 32 33  2  0
 33 34  1  0
 34 35  1  0
 35 36  2  0
M  CHG  1   3   1
M  END
$$$$
