
     RDKit          3D

 36 41  0  0  0  0  0  0  0  0999 V2000
  134.8942  -43.2322  266.2000 C   0  0  0  0  0  0  0  0  0  0  0  0
  134.2900  -42.8933  267.5735 C   0  0  0  0  0  0  0  0  0  0  0  0
  135.4016  -42.6774  268.4453 N   0  0  2  0  0  4  0  0  0  0  0  0
  135.2869  -41.4246  269.1714 C   0  0  0  0  0  0  0  0  0  0  0  0
  136.6264  -42.7465  267.6818 C   0  0  0  0  0  0  0  0  0  0  0  0
  136.1798  -42.4426  266.2949 C   0  0  1  0  0  0  0  0  0  0  0  0
  137.1573  -42.7980  265.2880 N   0  0  0  0  0  0  0  0  0  0  0  0
  138.2861  -41.9885  264.9850 C   0  0  0  0  0  0  0  0  0  0  0  0
  138.2512  -40.8529  265.5052 O   0  0  0  0  0  0  0  0  0  0  0  0
  139.4060  -42.3848  264.1558 C   0  0  0  0  0  0  0  0  0  0  0  0
  139.1615  -43.4697  263.3003 C   0  0  0  0  0  0  0  0  0  0  0  0
  140.2153  -43.8901  262.5018 C   0  0  0  0  0  0  0  0  0  0  0  0
  141.4094  -43.2841  262.5498 N   0  0  0  0  0  0  0  0  0  0  0  0
  141.6739  -42.2582  263.3449 C   0  0  0  0  0  0  0  0  0  0  0  0
  140.6316  -41.7891  264.1812 C   0  0  0  0  0  0  0  0  0  0  0  0
  140.8914  -40.6902  265.0222 N   0  0  0  0  0  0  0  0  0  0  0  0
  142.2406  -40.5140  265.5462 C   0  0  0  0  0  0  0  0  0  0  0  0
  142.5928  -39.3753  266.2323 C   0  0  0  0  0  0  0  0  0  0  0  0
  143.1874  -41.5029  265.3803 C   0  0  0  0  0  0  0  0  0  0  0  0
  144.4708  -41.3393  265.9028 C   0  0  0  0  0  0  0  0  0  0  0  0
  145.3990  -42.3095  265.7451 N   0  0  0  0  0  0  0  0  0  0  0  0
  146.6421  -42.1859  266.2390 C   0  0  0  0  0  0  0  0  0  0  0  0
  146.9429  -41.0100  266.9262 C   0  0  0  0  0  0  0  0  0  0  0  0
  146.0396  -40.0211  267.1014 N   0  0  0  0  0  0  0  0  0  0  0  0
  144.8015  -40.1992  266.5830 C   0  0  0  0  0  0  0  0  0  0  0  0
  143.8630  -39.1978  266.7573 C   0  0  0  0  0  0  0  0  0  0  0  0
  144.1945  -37.9818  267.4796 C   0  0  0  0  0  0  0  0  0  0  0  0
  143.4801  -37.5053  268.5499 C   0  0  0  0  0  0  0  0  0  0  0  0
  143.8222  -36.3419  269.2332 C   0  0  0  0  0  0  0  0  0  0  0  0
  143.2667  -35.7138  270.2869 N   0  0  0  0  0  0  0  0  0  0  0  0
  142.0784  -36.2187  270.9492 C   0  0  0  0  0  0  0  0  0  0  0  0
  143.9663  -34.6094  270.5901 C   0  0  0  0  0  0  0  0  0  0  0  0
  145.0025  -34.5469  269.6852 C   0  0  0  0  0  0  0  0  0  0  0  0
  144.9292  -35.6327  268.8188 C   0  0  0  0  0  0  0  0  0  0  0  0
  145.6665  -36.0746  267.7565 C   0  0  0  0  0  0  0  0  0  0  0  0
  145.2964  -37.2449  267.0930 C   0  0  0  0  0  0  0  0  0  0  0  0
  1  2  1  0
  1  6  1  0
  2  3  1  0
  3  4  1  6
  3  5  1  0
  5  6  1  0
  6  7  1  6
  7  8  1  0
  8  9  2  0
  8 10  1  0
 10 11  2  0
 10 15  1  0
 11 12  1  0
 12 13  2  0
 13 14  1  0
 14 15  2  0
 15 16  1  0
 16 17  1  0
 17 18  2  0
 17 19  1  0
 18 26  1  0
 19 20  2  0
 20 21  1  0
 20 25  1  0
 21 22  2  0
 22 23  1  0
 23 24  2  0
 24 25  1  0
 25 26  2  0
 26 27  1  0
 27 28  2  0
 27 36  1  0
 28 29  1  0
 29 30  1  0
 29 34  2  0
 30 31  1  0
 30 32  1  0
 32 33  2  0
 33 34  1  0
 34 35  1  0
 35 36  2  0
M  CHG  1   3   1
M  END
$$$$
