
     RDKit          3D

 36 41  0  0  0  0  0  0  0  0999 V2000
  137.7558  -41.8596  264.9356 C   0  0  0  0  0  0  0  0  0  0  0  0
  136.3325  -42.3947  265.1682 C   0  0  0  0  0  0  0  0  0  0  0  0
  136.4362  -43.8185  265.1023 N   0  0  2  0  0  4  0  0  0  0  0  0
  135.8177  -44.4616  266.2484 C   0  0  0  0  0  0  0  0  0  0  0  0
  137.8259  -44.1890  264.9626 C   0  0  0  0  0  0  0  0  0  0  0  0
  138.5487  -43.0099  265.5126 C   0  0  1  0  0  0  0  0  0  0  0  0
  139.9527  -42.9841  265.1605 N   0  0  0  0  0  0  0  0  0  0  0  0
  140.9473  -42.3928  265.9867 C   0  0  0  0  0  0  0  0  0  0  0  0
  140.5081  -41.9394  267.0651 O   0  0  0  0  0  0  0  0  0  0  0  0
  142.3564  -42.2934  265.6653 C   0  0  0  0  0  0  0  0  0  0  0  0
  142.8902  -43.3911  264.9734 C   0  0  0  0  0  0  0  0  0  0  0  0
  144.2413  -43.3409  264.6620 C   0  0  0  0  0  0  0  0  0  0  0  0
  144.9965  -42.2899  265.0086 N   0  0  0  0  0  0  0  0  0  0  0  0
  144.5251  -41.2379  265.6612 C   0  0  0  0  0  0  0  0  0  0  0  0
  143.1507  -41.2387  266.0033 C   0  0  0  0  0  0  0  0  0  0  0  0
  142.6299  -40.1220  266.6845 N   0  0  0  0  0  0  0  0  0  0  0  0
  143.4529  -38.9233  266.7945 C   0  0  0  0  0  0  0  0  0  0  0  0
  143.3362  -38.0785  267.8734 C   0  0  0  0  0  0  0  0  0  0  0  0
  144.3842  -38.6257  265.8219 C   0  0  0  0  0  0  0  0  0  0  0  0
  145.1849  -37.4894  265.9425 C   0  0  0  0  0  0  0  0  0  0  0  0
  146.1015  -37.1983  264.9924 N   0  0  0  0  0  0  0  0  0  0  0  0
  146.8911  -36.1150  265.0797 C   0  0  0  0  0  0  0  0  0  0  0  0
  146.7292  -35.2944  266.1960 C   0  0  0  0  0  0  0  0  0  0  0  0
  145.8231  -35.5559  267.1631 N   0  0  0  0  0  0  0  0  0  0  0  0
  145.0541  -36.6616  267.0240 C   0  0  0  0  0  0  0  0  0  0  0  0
  144.1240  -36.9463  268.0078 C   0  0  0  0  0  0  0  0  0  0  0  0
  143.9731  -36.0812  269.1649 C   0  0  0  0  0  0  0  0  0  0  0  0
  142.9851  -36.2234  270.1066 C   0  0  0  0  0  0  0  0  0  0  0  0
  142.8656  -35.3878  271.2133 C   0  0  0  0  0  0  0  0  0  0  0  0
  141.9875  -35.3562  272.2338 N   0  0  0  0  0  0  0  0  0  0  0  0
  140.8971  -36.3072  272.3449 C   0  0  0  0  0  0  0  0  0  0  0  0
  142.2858  -34.3509  273.0713 C   0  0  0  0  0  0  0  0  0  0  0  0
  143.3980  -33.7290  272.5491 C   0  0  0  0  0  0  0  0  0  0  0  0
  143.7800  -34.3691  271.3747 C   0  0  0  0  0  0  0  0  0  0  0  0
  144.7786  -34.1946  270.4583 C   0  0  0  0  0  0  0  0  0  0  0  0
  144.8704  -35.0498  269.3597 C   0  0  0  0  0  0  0  0  0  0  0  0
  1  2  1  0
  1  6  1  0
  2  3  1  0
  3  4  1  1
  3  5  1  0
  5  6  1  0
  6  7  1  6
  7  8  1  0
  8  9  2  0
  8 10  1  0
 10 11  2  0
 10 15  1  0
 11 12  1  0
 12 13  2  0
 13 14  1  0
 14 15  2  0
 15 16  1  0
 16 17  1  0
 17 18  2  0
 17 19  1  0
 18 26  1  0
 19 20  2  0
 20 21  1  0
 20 25  1  0
 21 22  2  0
 22 23  1  0
 23 24  2  0
 24 25  1  0
 25 26  2  0
 26 27  1  0
 27 28  2  0
 27 36  1  0
 28 29  1  0
 29 30  1  0
 29 34  2  0
 30 31  1  0
 30 32  1  0
 32 33  2  0
 33 34  1  0
 34 35  1  0
 35 36  2  0
M  CHG  1   3   1
M  END
$$$$
