
     RDKit          3D

 36 41  0  0  0  0  0  0  0  0999 V2000
  135.8902  -43.4956  266.1066 C   0  0  0  0  0  0  0  0  0  0  0  0
  134.8586  -43.0058  267.1373 C   0  0  0  0  0  0  0  0  0  0  0  0
  135.2925  -41.7031  267.5336 N   0  0  2  0  0  4  0  0  0  0  0  0
  134.2230  -40.7243  267.4447 C   0  0  0  0  0  0  0  0  0  0  0  0
  136.4387  -41.3210  266.7410 C   0  0  0  0  0  0  0  0  0  0  0  0
  136.3053  -42.1648  265.5222 C   0  0  1  0  0  0  0  0  0  0  0  0
  137.5182  -42.2276  264.7341 N   0  0  0  0  0  0  0  0  0  0  0  0
  138.8075  -42.3947  265.3096 C   0  0  0  0  0  0  0  0  0  0  0  0
  138.8216  -42.3145  266.5564 O   0  0  0  0  0  0  0  0  0  0  0  0
  140.0312  -42.6377  264.5732 C   0  0  0  0  0  0  0  0  0  0  0  0
  139.9608  -43.6648  263.6199 C   0  0  0  0  0  0  0  0  0  0  0  0
  141.1180  -43.9392  262.9053 C   0  0  0  0  0  0  0  0  0  0  0  0
  142.2477  -43.2517  263.1201 N   0  0  0  0  0  0  0  0  0  0  0  0
  142.3487  -42.2768  264.0112 C   0  0  0  0  0  0  0  0  0  0  0  0
  141.1953  -41.9562  264.7680 C   0  0  0  0  0  0  0  0  0  0  0  0
  141.2811  -40.9129  265.7095 N   0  0  0  0  0  0  0  0  0  0  0  0
  142.5940  -40.3640  266.0276 C   0  0  0  0  0  0  0  0  0  0  0  0
  142.7235  -39.2438  266.8148 C   0  0  0  0  0  0  0  0  0  0  0  0
  143.7375  -40.9760  265.5589 C   0  0  0  0  0  0  0  0  0  0  0  0
  144.9923  -40.4600  265.8843 C   0  0  0  0  0  0  0  0  0  0  0  0
  146.1146  -41.0611  265.4294 N   0  0  0  0  0  0  0  0  0  0  0  0
  147.3380  -40.5930  265.7273 C   0  0  0  0  0  0  0  0  0  0  0  0
  147.4087  -39.4542  266.5297 C   0  0  0  0  0  0  0  0  0  0  0  0
  146.3077  -38.8292  267.0005 N   0  0  0  0  0  0  0  0  0  0  0  0
  145.1002  -39.3447  266.6694 C   0  0  0  0  0  0  0  0  0  0  0  0
  143.9624  -38.7192  267.1470 C   0  0  0  0  0  0  0  0  0  0  0  0
  144.0571  -37.5362  267.9847 C   0  0  0  0  0  0  0  0  0  0  0  0
  143.4219  -37.3981  269.1933 C   0  0  0  0  0  0  0  0  0  0  0  0
  143.5348  -36.2582  269.9841 C   0  0  0  0  0  0  0  0  0  0  0  0
  143.0055  -35.9277  271.1773 N   0  0  0  0  0  0  0  0  0  0  0  0
  142.1268  -36.8222  271.9077 C   0  0  0  0  0  0  0  0  0  0  0  0
  143.4118  -34.7015  271.5412 C   0  0  0  0  0  0  0  0  0  0  0  0
  144.2295  -34.2486  270.5299 C   0  0  0  0  0  0  0  0  0  0  0  0
  144.3200  -35.2177  269.5362 C   0  0  0  0  0  0  0  0  0  0  0  0
  144.9686  -35.3169  268.3374 C   0  0  0  0  0  0  0  0  0  0  0  0
  144.8344  -36.4734  267.5687 C   0  0  0  0  0  0  0  0  0  0  0  0
  1  2  1  0
  1  6  1  0
  2  3  1  0
  3  4  1  6
  3  5  1  0
  5  6  1  0
  6  7  1  1
  7  8  1  0
  8  9  2  0
  8 10  1  0
 10 11  2  0
 10 15  1  0
 11 12  1  0
 12 13  2  0
 13 14  1  0
 14 15  2  0
 15 16  1  0
 16 17  1  0
 17 18  2  0
 17 19  1  0
 18 26  1  0
 19 20  2  0
 20 21  1  0
 20 25  1  0
 21 22  2  0
 22 23  1  0
 23 24  2  0
 24 25  1  0
 25 26  2  0
 26 27  1  0
 27 28  2  0
 27 36  1  0
 28 29  1  0
 29 30  1  0
 29 34  2  0
 30 31  1  0
 30 32  1  0
 32 33  2  0
 33 34  1  0
 34 35  1  0
 35 36  2  0
M  CHG  1   3   1
M  END
$$$$
