
     RDKit          3D

 36 41  0  0  0  0  0  0  0  0999 V2000
  137.9133  -44.4891  267.8307 C   0  0  0  0  0  0  0  0  0  0  0  0
  136.6422  -44.2525  268.6641 C   0  0  0  0  0  0  0  0  0  0  0  0
  135.8795  -43.2818  267.9442 N   0  0  2  0  0  4  0  0  0  0  0  0
  134.5030  -43.7051  267.7541 C   0  0  0  0  0  0  0  0  0  0  0  0
  136.5337  -42.9987  266.6872 C   0  0  0  0  0  0  0  0  0  0  0  0
  137.3580  -44.2154  266.4516 C   0  0  1  0  0  0  0  0  0  0  0  0
  138.3767  -44.0294  265.4399 N   0  0  0  0  0  0  0  0  0  0  0  0
  138.3842  -42.9267  264.5424 C   0  0  0  0  0  0  0  0  0  0  0  0
  137.4017  -42.1646  264.6658 O   0  0  0  0  0  0  0  0  0  0  0  0
  139.4068  -42.6558  263.5527 C   0  0  0  0  0  0  0  0  0  0  0  0
  139.2480  -43.3267  262.3306 C   0  0  0  0  0  0  0  0  0  0  0  0
  140.2170  -43.1062  261.3623 C   0  0  0  0  0  0  0  0  0  0  0  0
  141.2544  -42.2893  261.5896 N   0  0  0  0  0  0  0  0  0  0  0  0
  141.4344  -41.6409  262.7306 C   0  0  0  0  0  0  0  0  0  0  0  0
  140.4730  -41.8308  263.7531 C   0  0  0  0  0  0  0  0  0  0  0  0
  140.6414  -41.1380  264.9672 N   0  0  0  0  0  0  0  0  0  0  0  0
  141.9947  -40.8372  265.4191 C   0  0  0  0  0  0  0  0  0  0  0  0
  142.2751  -39.6731  266.0954 C   0  0  0  0  0  0  0  0  0  0  0  0
  143.0198  -41.7317  265.1932 C   0  0  0  0  0  0  0  0  0  0  0  0
  144.3087  -41.4496  265.6470 C   0  0  0  0  0  0  0  0  0  0  0  0
  145.3141  -42.3272  265.4305 N   0  0  0  0  0  0  0  0  0  0  0  0
  146.5652  -42.0887  265.8576 C   0  0  0  0  0  0  0  0  0  0  0  0
  146.7911  -40.8923  266.5382 C   0  0  0  0  0  0  0  0  0  0  0  0
  145.8097  -39.9939  266.7711 N   0  0  0  0  0  0  0  0  0  0  0  0
  144.5673  -40.2861  266.3187 C   0  0  0  0  0  0  0  0  0  0  0  0
  143.5498  -39.3785  266.5526 C   0  0  0  0  0  0  0  0  0  0  0  0
  143.8044  -38.1395  267.2669 C   0  0  0  0  0  0  0  0  0  0  0  0
  143.0505  -37.6929  268.3230 C   0  0  0  0  0  0  0  0  0  0  0  0
  143.3191  -36.5062  268.9990 C   0  0  0  0  0  0  0  0  0  0  0  0
  142.7157  -35.8997  270.0389 N   0  0  0  0  0  0  0  0  0  0  0  0
  141.5478  -36.4627  270.6906 C   0  0  0  0  0  0  0  0  0  0  0  0
  143.3496  -34.7558  270.3401 C   0  0  0  0  0  0  0  0  0  0  0  0
  144.3932  -34.6451  269.4484 C   0  0  0  0  0  0  0  0  0  0  0  0
  144.3911  -35.7413  268.5921 C   0  0  0  0  0  0  0  0  0  0  0  0
  145.1660  -36.1520  267.5440 C   0  0  0  0  0  0  0  0  0  0  0  0
  144.8696  -37.3469  266.8875 C   0  0  0  0  0  0  0  0  0  0  0  0
  1  2  1  0
  1  6  1  0
  2  3  1  0
  3  4  1  6
  3  5  1  0
  5  6  1  0
  6  7  1  6
  7  8  1  0
  8  9  2  0
  8 10  1  0
 10 11  2  0
 10 15  1  0
 11 12  1  0
 12 13  2  0
 13 14  1  0
 14 15  2  0
 15 16  1  0
 16 17  1  0
 17 18  2  0
 17 19  1  0
 18 26  1  0
 19 20  2  0
 20 21  1  0
 20 25  1  0
 21 22  2  0
 22 23  1  0
 23 24  2  0
 24 25  1  0
 25 26  2  0
 26 27  1  0
 27 28  2  0
 27 36  1  0
 28 29  1  0
 29 30  1  0
 29 34  2  0
 30 31  1  0
 30 32  1  0
 32 33  2  0
 33 34  1  0
 34 35  1  0
 35 36  2  0
M  CHG  1   3   1
M  END
$$$$
