
     RDKit          3D

 36 41  0  0  0  0  0  0  0  0999 V2000
  137.0411  -44.0866  265.2490 C   0  0  0  0  0  0  0  0  0  0  0  0
  135.9097  -43.4724  266.0909 C   0  0  0  0  0  0  0  0  0  0  0  0
  136.5525  -42.6430  267.0611 N   0  0  2  0  0  4  0  0  0  0  0  0
  135.9848  -41.3063  267.0941 C   0  0  0  0  0  0  0  0  0  0  0  0
  137.9734  -42.6176  266.7998 C   0  0  0  0  0  0  0  0  0  0  0  0
  138.0601  -42.9754  265.3576 C   0  0  1  0  0  0  0  0  0  0  0  0
  139.3918  -43.3637  264.9434 N   0  0  0  0  0  0  0  0  0  0  0  0
  140.3791  -42.4264  264.5335 C   0  0  0  0  0  0  0  0  0  0  0  0
  139.9125  -41.3354  264.1422 O   0  0  0  0  0  0  0  0  0  0  0  0
  141.8098  -42.6544  264.5441 C   0  0  0  0  0  0  0  0  0  0  0  0
  142.2637  -43.6433  263.6582 C   0  0  0  0  0  0  0  0  0  0  0  0
  143.6266  -43.9027  263.6510 C   0  0  0  0  0  0  0  0  0  0  0  0
  144.4659  -43.2364  264.4554 N   0  0  0  0  0  0  0  0  0  0  0  0
  144.0713  -42.2977  265.3025 C   0  0  0  0  0  0  0  0  0  0  0  0
  142.6888  -41.9937  265.3493 C   0  0  0  0  0  0  0  0  0  0  0  0
  142.2541  -40.9884  266.2339 N   0  0  0  0  0  0  0  0  0  0  0  0
  143.2101  -39.9759  266.6664 C   0  0  0  0  0  0  0  0  0  0  0  0
  142.8195  -38.9247  267.4624 C   0  0  0  0  0  0  0  0  0  0  0  0
  144.5363  -40.0678  266.2997 C   0  0  0  0  0  0  0  0  0  0  0  0
  145.4518  -39.1088  266.7343 C   0  0  0  0  0  0  0  0  0  0  0  0
  146.7532  -39.1996  266.3795 N   0  0  0  0  0  0  0  0  0  0  0  0
  147.6612  -38.2959  266.7840 C   0  0  0  0  0  0  0  0  0  0  0  0
  147.2083  -37.2515  267.5900 C   0  0  0  0  0  0  0  0  0  0  0  0
  145.9156  -37.1309  267.9625 N   0  0  0  0  0  0  0  0  0  0  0  0
  145.0436  -38.0706  267.5264 C   0  0  0  0  0  0  0  0  0  0  0  0
  143.7165  -37.9642  267.9024 C   0  0  0  0  0  0  0  0  0  0  0  0
  143.2651  -36.8710  268.7458 C   0  0  0  0  0  0  0  0  0  0  0  0
  143.3275  -36.8821  270.1165 C   0  0  0  0  0  0  0  0  0  0  0  0
  142.8975  -35.8183  270.9045 C   0  0  0  0  0  0  0  0  0  0  0  0
  142.8720  -35.6311  272.2378 N   0  0  0  0  0  0  0  0  0  0  0  0
  143.3472  -36.6375  273.1689 C   0  0  0  0  0  0  0  0  0  0  0  0
  142.3598  -34.4248  272.5269 C   0  0  0  0  0  0  0  0  0  0  0  0
  142.0525  -33.8354  271.3209 C   0  0  0  0  0  0  0  0  0  0  0  0
  142.3846  -34.7000  270.2830 C   0  0  0  0  0  0  0  0  0  0  0  0
  142.3055  -34.6507  268.9196 C   0  0  0  0  0  0  0  0  0  0  0  0
  142.7453  -35.7343  268.1588 C   0  0  0  0  0  0  0  0  0  0  0  0
  1  2  1  0
  1  6  1  0
  2  3  1  0
  3  4  1  6
  3  5  1  0
  5  6  1  0
  6  7  1  1
  7  8  1  0
  8  9  2  0
  8 10  1  0
 10 11  2  0
 10 15  1  0
 11 12  1  0
 12 13  2  0
 13 14  1  0
 14 15  2  0
 15 16  1  0
 16 17  1  0
 17 18  2  0
 17 19  1  0
 18 26  1  0
 19 20  2  0
 20 21  1  0
 20 25  1  0
 21 22  2  0
 22 23  1  0
 23 24  2  0
 24 25  1  0
 25 26  2  0
 26 27  1  0
 27 28  2  0
 27 36  1  0
 28 29  1  0
 29 30  1  0
 29 34  2  0
 30 31  1  0
 30 32  1  0
 32 33  2  0
 33 34  1  0
 34 35  1  0
 35 36  2  0
M  CHG  1   3   1
M  END
$$$$
