
     RDKit          3D

 36 41  0  0  0  0  0  0  0  0999 V2000
  136.8004  -41.3748  266.9688 C   0  0  0  0  0  0  0  0  0  0  0  0
  135.4819  -41.2959  267.7572 C   0  0  0  0  0  0  0  0  0  0  0  0
  134.4677  -41.7686  266.8683 N   0  0  2  0  0  4  0  0  0  0  0  0
  133.6426  -42.7943  267.4822 C   0  0  0  0  0  0  0  0  0  0  0  0
  135.0838  -42.2336  265.6467 C   0  0  0  0  0  0  0  0  0  0  0  0
  136.4779  -42.5435  266.0660 C   0  0  1  0  0  0  0  0  0  0  0  0
  137.3915  -42.6888  264.9524 N   0  0  0  0  0  0  0  0  0  0  0  0
  138.7880  -42.8970  265.1188 C   0  0  0  0  0  0  0  0  0  0  0  0
  139.1166  -43.2376  266.2753 O   0  0  0  0  0  0  0  0  0  0  0  0
  139.7896  -42.7446  264.0833 C   0  0  0  0  0  0  0  0  0  0  0  0
  139.5189  -43.4239  262.8857 C   0  0  0  0  0  0  0  0  0  0  0  0
  140.4632  -43.3162  261.8750 C   0  0  0  0  0  0  0  0  0  0  0  0
  141.5803  -42.5952  262.0405 N   0  0  0  0  0  0  0  0  0  0  0  0
  141.8667  -41.9419  263.1567 C   0  0  0  0  0  0  0  0  0  0  0  0
  140.9350  -42.0188  264.2206 C   0  0  0  0  0  0  0  0  0  0  0  0
  141.2169  -41.3186  265.4091 N   0  0  0  0  0  0  0  0  0  0  0  0
  142.5902  -40.9018  265.6665 C   0  0  0  0  0  0  0  0  0  0  0  0
  142.8652  -39.6985  266.2729 C   0  0  0  0  0  0  0  0  0  0  0  0
  143.6437  -41.7230  265.3233 C   0  0  0  0  0  0  0  0  0  0  0  0
  144.9552  -41.3297  265.5917 C   0  0  0  0  0  0  0  0  0  0  0  0
  145.9891  -42.1352  265.2600 N   0  0  0  0  0  0  0  0  0  0  0  0
  147.2631  -41.7890  265.5080 C   0  0  0  0  0  0  0  0  0  0  0  0
  147.4823  -40.5575  266.1253 C   0  0  0  0  0  0  0  0  0  0  0  0
  146.4726  -39.7288  266.4694 N   0  0  0  0  0  0  0  0  0  0  0  0
  145.2081  -40.1287  266.1964 C   0  0  0  0  0  0  0  0  0  0  0  0
  144.1621  -39.2936  266.5462 C   0  0  0  0  0  0  0  0  0  0  0  0
  144.4108  -38.0164  267.1920 C   0  0  0  0  0  0  0  0  0  0  0  0
  143.7834  -37.6009  268.3396 C   0  0  0  0  0  0  0  0  0  0  0  0
  144.0447  -36.3759  268.9464 C   0  0  0  0  0  0  0  0  0  0  0  0
  143.5496  -35.7893  270.0528 N   0  0  0  0  0  0  0  0  0  0  0  0
  142.5420  -36.4261  270.8804 C   0  0  0  0  0  0  0  0  0  0  0  0
  144.1200  -34.5883  270.2357 C   0  0  0  0  0  0  0  0  0  0  0  0
  145.0089  -34.4196  269.1976 C   0  0  0  0  0  0  0  0  0  0  0  0
  144.9762  -35.5383  268.3714 C   0  0  0  0  0  0  0  0  0  0  0  0
  145.6222  -35.9160  267.2279 C   0  0  0  0  0  0  0  0  0  0  0  0
  145.3371  -37.1509  266.6447 C   0  0  0  0  0  0  0  0  0  0  0  0
  1  2  1  0
  1  6  1  0
  2  3  1  0
  3  4  1  1
  3  5  1  0
  5  6  1  0
  6  7  1  6
  7  8  1  0
  8  9  2  0
  8 10  1  0
 10 11  2  0
 10 15  1  0
 11 12  1  0
 12 13  2  0
 13 14  1  0
 14 15  2  0
 15 16  1  0
 16 17  1  0
 17 18  2  0
 17 19  1  0
 18 26  1  0
 19 20  2  0
 20 21  1  0
 20 25  1  0
 21 22  2  0
 22 23  1  0
 23 24  2  0
 24 25  1  0
 25 26  2  0
 26 27  1  0
 27 28  2  0
 27 36  1  0
 28 29  1  0
 29 30  1  0
 29 34  2  0
 30 31  1  0
 30 32  1  0
 32 33  2  0
 33 34  1  0
 34 35  1  0
 35 36  2  0
M  CHG  1   3   1
M  END
$$$$
