
     RDKit          3D

 36 41  0  0  0  0  0  0  0  0999 V2000
  135.9022  -41.9663  266.6196 C   0  0  0  0  0  0  0  0  0  0  0  0
  134.4975  -42.4207  267.0516 C   0  0  0  0  0  0  0  0  0  0  0  0
  134.5909  -43.8317  267.2580 N   0  0  2  0  0  4  0  0  0  0  0  0
  134.0546  -44.2283  268.5483 C   0  0  0  0  0  0  0  0  0  0  0  0
  135.9655  -44.2469  267.0962 C   0  0  0  0  0  0  0  0  0  0  0  0
  136.7306  -42.9963  267.3531 C   0  0  1  0  0  0  0  0  0  0  0  0
  138.1055  -43.0644  266.9050 N   0  0  0  0  0  0  0  0  0  0  0  0
  138.6386  -42.2018  265.9085 C   0  0  0  0  0  0  0  0  0  0  0  0
  138.1226  -41.0639  265.8926 O   0  0  0  0  0  0  0  0  0  0  0  0
  139.6838  -42.5498  264.9677 C   0  0  0  0  0  0  0  0  0  0  0  0
  139.3953  -43.6376  264.1297 C   0  0  0  0  0  0  0  0  0  0  0  0
  140.3788  -44.0124  263.2256 C   0  0  0  0  0  0  0  0  0  0  0  0
  141.5483  -43.3619  263.1604 N   0  0  0  0  0  0  0  0  0  0  0  0
  141.8528  -42.3319  263.9357 C   0  0  0  0  0  0  0  0  0  0  0  0
  140.8828  -41.9082  264.8767 C   0  0  0  0  0  0  0  0  0  0  0  0
  141.1846  -40.8058  265.6988 N   0  0  0  0  0  0  0  0  0  0  0  0
  142.5818  -40.5254  266.0079 C   0  0  0  0  0  0  0  0  0  0  0  0
  142.9384  -39.4169  266.7395 C   0  0  0  0  0  0  0  0  0  0  0  0
  143.5747  -41.3849  265.5871 C   0  0  0  0  0  0  0  0  0  0  0  0
  144.9082  -41.1242  265.9042 C   0  0  0  0  0  0  0  0  0  0  0  0
  145.8827  -41.9679  265.4964 N   0  0  0  0  0  0  0  0  0  0  0  0
  147.1756  -41.7489  265.7880 C   0  0  0  0  0  0  0  0  0  0  0  0
  147.4785  -40.6093  266.5331 C   0  0  0  0  0  0  0  0  0  0  0  0
  146.5298  -39.7457  266.9558 N   0  0  0  0  0  0  0  0  0  0  0  0
  145.2427  -40.0161  266.6337 C   0  0  0  0  0  0  0  0  0  0  0  0
  144.2582  -39.1440  267.0627 C   0  0  0  0  0  0  0  0  0  0  0  0
  144.5936  -37.9643  267.8411 C   0  0  0  0  0  0  0  0  0  0  0  0
  143.9118  -36.7757  267.7669 C   0  0  0  0  0  0  0  0  0  0  0  0
  144.2455  -35.6605  268.5300 C   0  0  0  0  0  0  0  0  0  0  0  0
  143.7166  -34.4245  268.6070 N   0  0  0  0  0  0  0  0  0  0  0  0
  142.5780  -34.0195  267.8037 C   0  0  0  0  0  0  0  0  0  0  0  0
  144.3915  -33.6862  269.5017 C   0  0  0  0  0  0  0  0  0  0  0  0
  145.3844  -34.4980  270.0034 C   0  0  0  0  0  0  0  0  0  0  0  0
  145.3093  -35.7500  269.4019 C   0  0  0  0  0  0  0  0  0  0  0  0
  146.0136  -36.9166  269.5044 C   0  0  0  0  0  0  0  0  0  0  0  0
  145.6532  -38.0162  268.7250 C   0  0  0  0  0  0  0  0  0  0  0  0
  1  2  1  0
  1  6  1  0
  2  3  1  0
  3  4  1  1
  3  5  1  0
  5  6  1  0
  6  7  1  6
  7  8  1  0
  8  9  2  0
  8 10  1  0
 10 11  2  0
 10 15  1  0
 11 12  1  0
 12 13  2  0
 13 14  1  0
 14 15  2  0
 15 16  1  0
 16 17  1  0
 17 18  2  0
 17 19  1  0
 18 26  1  0
 19 20  2  0
 20 21  1  0
 20 25  1  0
 21 22  2  0
 22 23  1  0
 23 24  2  0
 24 25  1  0
 25 26  2  0
 26 27  1  0
 27 28  2  0
 27 36  1  0
 28 29  1  0
 29 30  1  0
 29 34  2  0
 30 31  1  0
 30 32  1  0
 32 33  2  0
 33 34  1  0
 34 35  1  0
 35 36  2  0
M  CHG  1   3   1
M  END
$$$$
