
     RDKit          3D

 36 41  0  0  0  0  0  0  0  0999 V2000
  134.9293  -43.4728  265.7338 C   0  0  0  0  0  0  0  0  0  0  0  0
  134.3653  -43.6168  267.1577 C   0  0  0  0  0  0  0  0  0  0  0  0
  135.5013  -43.6649  268.0234 N   0  0  2  0  0  4  0  0  0  0  0  0
  135.3878  -42.7203  269.1211 C   0  0  0  0  0  0  0  0  0  0  0  0
  136.7010  -43.4468  267.2480 C   0  0  0  0  0  0  0  0  0  0  0  0
  136.2024  -42.7209  266.0480 C   0  0  1  0  0  0  0  0  0  0  0  0
  137.1521  -42.7014  264.9555 N   0  0  0  0  0  0  0  0  0  0  0  0
  138.3724  -41.9734  265.0034 C   0  0  0  0  0  0  0  0  0  0  0  0
  138.3970  -41.0800  265.8767 O   0  0  0  0  0  0  0  0  0  0  0  0
  139.5186  -42.1973  264.1463 C   0  0  0  0  0  0  0  0  0  0  0  0
  139.2813  -43.0188  263.0338 C   0  0  0  0  0  0  0  0  0  0  0  0
  140.3593  -43.2709  262.1975 C   0  0  0  0  0  0  0  0  0  0  0  0
  141.5690  -42.7511  262.4460 N   0  0  0  0  0  0  0  0  0  0  0  0
  141.8274  -41.9723  263.4859 C   0  0  0  0  0  0  0  0  0  0  0  0
  140.7607  -41.6832  264.3715 C   0  0  0  0  0  0  0  0  0  0  0  0
  141.0145  -40.8453  265.4741 N   0  0  0  0  0  0  0  0  0  0  0  0
  142.3984  -40.6002  265.8625 C   0  0  0  0  0  0  0  0  0  0  0  0
  142.7535  -39.4589  266.5426 C   0  0  0  0  0  0  0  0  0  0  0  0
  143.3784  -41.5258  265.5711 C   0  0  0  0  0  0  0  0  0  0  0  0
  144.6974  -41.2972  265.9643 C   0  0  0  0  0  0  0  0  0  0  0  0
  145.6588  -42.2053  265.6835 N   0  0  0  0  0  0  0  0  0  0  0  0
  146.9372  -42.0185  266.0512 C   0  0  0  0  0  0  0  0  0  0  0  0
  147.2393  -40.8431  266.7388 C   0  0  0  0  0  0  0  0  0  0  0  0
  146.3034  -39.9152  267.0350 N   0  0  0  0  0  0  0  0  0  0  0  0
  145.0305  -40.1556  266.6408 C   0  0  0  0  0  0  0  0  0  0  0  0
  144.0589  -39.2173  266.9400 C   0  0  0  0  0  0  0  0  0  0  0  0
  144.3929  -38.0010  267.6606 C   0  0  0  0  0  0  0  0  0  0  0  0
  144.3290  -36.7432  267.1154 C   0  0  0  0  0  0  0  0  0  0  0  0
  144.6449  -35.5902  267.8283 C   0  0  0  0  0  0  0  0  0  0  0  0
  144.6480  -34.2873  267.4880 N   0  0  0  0  0  0  0  0  0  0  0  0
  144.2778  -33.8344  266.1600 C   0  0  0  0  0  0  0  0  0  0  0  0
  145.0318  -33.5363  268.5319 C   0  0  0  0  0  0  0  0  0  0  0  0
  145.2789  -34.4099  269.5673 C   0  0  0  0  0  0  0  0  0  0  0  0
  145.0404  -35.7130  269.1430 C   0  0  0  0  0  0  0  0  0  0  0  0
  145.1167  -36.9485  269.7219 C   0  0  0  0  0  0  0  0  0  0  0  0
  144.7933  -38.0846  268.9794 C   0  0  0  0  0  0  0  0  0  0  0  0
  1  2  1  0
  1  6  1  0
  2  3  1  0
  3  4  1  1
  3  5  1  0
  5  6  1  0
  6  7  1  6
  7  8  1  0
  8  9  2  0
  8 10  1  0
 10 11  2  0
 10 15  1  0
 11 12  1  0
 12 13  2  0
 13 14  1  0
 14 15  2  0
 15 16  1  0
 16 17  1  0
 17 18  2  0
 17 19  1  0
 18 26  1  0
 19 20  2  0
 20 21  1  0
 20 25  1  0
 21 22  2  0
 22 23  1  0
 23 24  2  0
 24 25  1  0
 25 26  2  0
 26 27  1  0
 27 28  2  0
 27 36  1  0
 28 29  1  0
 29 30  1  0
 29 34  2  0
 30 31  1  0
 30 32  1  0
 32 33  2  0
 33 34  1  0
 34 35  1  0
 35 36  2  0
M  CHG  1   3   1
M  END
$$$$
