
     RDKit          3D

 36 41  0  0  0  0  0  0  0  0999 V2000
  134.6532  -42.0066  265.7008 C   0  0  0  0  0  0  0  0  0  0  0  0
  133.8384  -42.6642  266.8278 C   0  0  0  0  0  0  0  0  0  0  0  0
  134.5955  -43.8034  267.2418 N   0  0  2  0  0  4  0  0  0  0  0  0
  134.7836  -43.8362  268.6817 C   0  0  0  0  0  0  0  0  0  0  0  0
  135.8552  -43.8212  266.5342 C   0  0  0  0  0  0  0  0  0  0  0  0
  136.0448  -42.3978  266.1425 C   0  0  1  0  0  0  0  0  0  0  0  0
  137.0533  -42.2151  265.1200 N   0  0  0  0  0  0  0  0  0  0  0  0
  138.4229  -42.5421  265.3163 C   0  0  0  0  0  0  0  0  0  0  0  0
  138.7085  -42.8481  266.4937 O   0  0  0  0  0  0  0  0  0  0  0  0
  139.4432  -42.5393  264.2879 C   0  0  0  0  0  0  0  0  0  0  0  0
  139.1337  -43.2805  263.1374 C   0  0  0  0  0  0  0  0  0  0  0  0
  140.0933  -43.3161  262.1359 C   0  0  0  0  0  0  0  0  0  0  0  0
  141.2600  -42.6705  262.2671 N   0  0  0  0  0  0  0  0  0  0  0  0
  141.5840  -41.9622  263.3386 C   0  0  0  0  0  0  0  0  0  0  0  0
  140.6388  -41.8931  264.3911 C   0  0  0  0  0  0  0  0  0  0  0  0
  140.9611  -41.1327  265.5312 N   0  0  0  0  0  0  0  0  0  0  0  0
  142.3537  -40.7626  265.7546 C   0  0  0  0  0  0  0  0  0  0  0  0
  142.6858  -39.5469  266.3050 C   0  0  0  0  0  0  0  0  0  0  0  0
  143.3680  -41.6407  265.4351 C   0  0  0  0  0  0  0  0  0  0  0  0
  144.6979  -41.2911  265.6712 C   0  0  0  0  0  0  0  0  0  0  0  0
  145.6934  -42.1523  265.3628 N   0  0  0  0  0  0  0  0  0  0  0  0
  146.9838  -41.8490  265.5810 C   0  0  0  0  0  0  0  0  0  0  0  0
  147.2614  -40.6024  266.1418 C   0  0  0  0  0  0  0  0  0  0  0  0
  146.2912  -39.7186  266.4612 N   0  0  0  0  0  0  0  0  0  0  0  0
  145.0078  -40.0769  266.2203 C   0  0  0  0  0  0  0  0  0  0  0  0
  144.0016  -39.1849  266.5457 C   0  0  0  0  0  0  0  0  0  0  0  0
  144.3110  -37.8926  267.1327 C   0  0  0  0  0  0  0  0  0  0  0  0
  143.6738  -37.3765  268.2330 C   0  0  0  0  0  0  0  0  0  0  0  0
  143.9937  -36.1392  268.7843 C   0  0  0  0  0  0  0  0  0  0  0  0
  143.5010  -35.4631  269.8395 N   0  0  0  0  0  0  0  0  0  0  0  0
  142.4270  -35.9891  270.6614 C   0  0  0  0  0  0  0  0  0  0  0  0
  144.1418  -34.2924  269.9805 C   0  0  0  0  0  0  0  0  0  0  0  0
  145.0740  -34.2369  268.9684 C   0  0  0  0  0  0  0  0  0  0  0  0
  144.9964  -35.3946  268.2011 C   0  0  0  0  0  0  0  0  0  0  0  0
  145.6545  -35.8740  267.1035 C   0  0  0  0  0  0  0  0  0  0  0  0
  145.3094  -37.1184  266.5754 C   0  0  0  0  0  0  0  0  0  0  0  0
  1  2  1  0
  1  6  1  0
  2  3  1  0
  3  4  1  1
  3  5  1  0
  5  6  1  0
  6  7  1  6
  7  8  1  0
  8  9  2  0
  8 10  1  0
 10 11  2  0
 10 15  1  0
 11 12  1  0
 12 13  2  0
 13 14  1  0
 14 15  2  0
 15 16  1  0
 16 17  1  0
 17 18  2  0
 17 19  1  0
 18 26  1  0
 19 20  2  0
 20 21  1  0
 20 25  1  0
 21 22  2  0
 22 23  1  0
 23 24  2  0
 24 25  1  0
 25 26  2  0
 26 27  1  0
 27 28  2  0
 27 36  1  0
 28 29  1  0
 29 30  1  0
 29 34  2  0
 30 31  1  0
 30 32  1  0
 32 33  2  0
 33 34  1  0
 34 35  1  0
 35 36  2  0
M  CHG  1   3   1
M  END
$$$$
