
     RDKit          3D

 36 41  0  0  0  0  0  0  0  0999 V2000
  136.4337  -44.6048  267.2693 C   0  0  0  0  0  0  0  0  0  0  0  0
  135.6074  -44.0485  268.4414 C   0  0  0  0  0  0  0  0  0  0  0  0
  136.2384  -42.8219  268.8151 N   0  0  2  0  0  4  0  0  0  0  0  0
  135.2887  -41.7259  268.8976 C   0  0  0  0  0  0  0  0  0  0  0  0
  137.3105  -42.5362  267.8894 C   0  0  0  0  0  0  0  0  0  0  0  0
  136.9240  -43.3044  266.6745 C   0  0  1  0  0  0  0  0  0  0  0  0
  138.0101  -43.4681  265.7314 N   0  0  0  0  0  0  0  0  0  0  0  0
  138.2772  -42.5385  264.6894 C   0  0  0  0  0  0  0  0  0  0  0  0
  137.4404  -41.6142  264.6063 O   0  0  0  0  0  0  0  0  0  0  0  0
  139.3985  -42.6014  263.7743 C   0  0  0  0  0  0  0  0  0  0  0  0
  139.2504  -43.5026  262.7090 C   0  0  0  0  0  0  0  0  0  0  0  0
  140.3105  -43.6040  261.8198 C   0  0  0  0  0  0  0  0  0  0  0  0
  141.4222  -42.8726  261.9762 N   0  0  0  0  0  0  0  0  0  0  0  0
  141.5947  -42.0132  262.9694 C   0  0  0  0  0  0  0  0  0  0  0  0
  140.5417  -41.8711  263.9058 C   0  0  0  0  0  0  0  0  0  0  0  0
  140.7026  -40.9513  264.9596 N   0  0  0  0  0  0  0  0  0  0  0  0
  142.0330  -40.7619  265.5257 C   0  0  0  0  0  0  0  0  0  0  0  0
  142.3591  -39.6102  266.2027 C   0  0  0  0  0  0  0  0  0  0  0  0
  142.9870  -41.7509  265.4096 C   0  0  0  0  0  0  0  0  0  0  0  0
  144.2516  -41.5743  265.9722 C   0  0  0  0  0  0  0  0  0  0  0  0
  145.1868  -42.5445  265.8633 N   0  0  0  0  0  0  0  0  0  0  0  0
  146.4122  -42.4086  266.3967 C   0  0  0  0  0  0  0  0  0  0  0  0
  146.6869  -41.2197  267.0724 C   0  0  0  0  0  0  0  0  0  0  0  0
  145.7760  -40.2304  267.1993 N   0  0  0  0  0  0  0  0  0  0  0  0
  144.5565  -40.4213  266.6425 C   0  0  0  0  0  0  0  0  0  0  0  0
  143.6104  -39.4196  266.7671 C   0  0  0  0  0  0  0  0  0  0  0  0
  143.9145  -38.1900  267.4781 C   0  0  0  0  0  0  0  0  0  0  0  0
  143.1482  -37.6823  268.4970 C   0  0  0  0  0  0  0  0  0  0  0  0
  143.4644  -36.5062  269.1710 C   0  0  0  0  0  0  0  0  0  0  0  0
  142.8591  -35.8488  270.1783 N   0  0  0  0  0  0  0  0  0  0  0  0
  141.6318  -36.3275  270.7865 C   0  0  0  0  0  0  0  0  0  0  0  0
  143.5523  -34.7437  270.4935 C   0  0  0  0  0  0  0  0  0  0  0  0
  144.6365  -34.7115  269.6450 C   0  0  0  0  0  0  0  0  0  0  0  0
  144.5992  -35.8167  268.8011 C   0  0  0  0  0  0  0  0  0  0  0  0
  145.3884  -36.2898  267.7907 C   0  0  0  0  0  0  0  0  0  0  0  0
  145.0430  -37.4720  267.1351 C   0  0  0  0  0  0  0  0  0  0  0  0
  1  2  1  0
  1  6  1  0
  2  3  1  0
  3  4  1  6
  3  5  1  0
  5  6  1  0
  6  7  1  6
  7  8  1  0
  8  9  2  0
  8 10  1  0
 10 11  2  0
 10 15  1  0
 11 12  1  0
 12 13  2  0
 13 14  1  0
 14 15  2  0
 15 16  1  0
 16 17  1  0
 17 18  2  0
 17 19  1  0
 18 26  1  0
 19 20  2  0
 20 21  1  0
 20 25  1  0
 21 22  2  0
 22 23  1  0
 23 24  2  0
 24 25  1  0
 25 26  2  0
 26 27  1  0
 27 28  2  0
 27 36  1  0
 28 29  1  0
 29 30  1  0
 29 34  2  0
 30 31  1  0
 30 32  1  0
 32 33  2  0
 33 34  1  0
 34 35  1  0
 35 36  2  0
M  CHG  1   3   1
M  END
$$$$
