
     RDKit          3D

 28 30  0  0  0  0  0  0  0  0999 V2000
   11.5503   19.2356   23.5663 B   0  0  0  0  0  0  0  0  0  0  0  0
   13.7447   19.7737   22.5276 C   0  0  0  0  0  0  0  0  0  0  0  0
   15.0616   19.4293   22.2831 C   0  0  0  0  0  0  0  0  0  0  0  0
   15.6026   18.1922   22.8042 C   0  0  0  0  0  0  0  0  0  0  0  0
   15.8520   20.2688   21.5422 C   0  0  0  0  0  0  0  0  0  0  0  0
   15.3618   21.4684   21.0249 C   0  0  0  0  0  0  0  0  0  0  0  0
   14.0495   21.7733   21.2903 C   0  0  0  0  0  0  0  0  0  0  0  0
   13.2179   20.9390   22.0420 C   0  0  0  0  0  0  0  0  0  0  0  0
   11.8400   21.4100   22.2348 C   0  0  0  0  0  0  0  0  0  0  0  0
   11.1335   20.7667   23.3986 C   0  0  2  0  0  0  0  0  0  0  0  0
   10.9767   22.7193   24.8855 C   0  0  0  0  0  0  0  0  0  0  0  0
   11.3708   23.9036   24.1082 C   0  0  0  0  0  0  0  0  0  0  0  0
   12.1688   24.8514   24.9777 C   0  0  2  0  0  0  0  0  0  0  0  0
   11.6689   26.2475   24.9900 C   0  0  0  0  0  0  0  0  0  0  0  0
   12.4577   27.2557   24.2323 C   0  0  0  0  0  0  0  0  0  0  0  0
   13.9311   27.0830   24.2148 C   0  0  2  0  0  0  0  0  0  0  0  0
   14.9337   28.5003   25.8173 C   0  0  0  0  0  0  0  0  0  0  0  0
   15.7097   29.7599   26.1217 C   0  0  0  0  0  0  0  0  0  0  0  0
   14.3093   26.0182   25.2174 C   0  0  0  0  0  0  0  0  0  0  0  0
   13.6483   24.7380   24.6833 C   0  0  0  0  0  0  0  0  0  0  0  0
   11.5394   21.4656   24.5942 N   0  0  0  0  0  0  0  0  0  0  0  0
   14.6786   28.3081   24.4181 N   0  0  0  0  0  4  0  0  0  0  0  0
   16.7490   30.0419   25.1760 N   0  0  0  0  0  4  0  0  0  0  0  0
   10.7932   18.4694   24.5693 O   0  0  0  0  0  3  0  0  0  0  0  0
   12.9614   18.8939   23.2888 O   0  0  0  0  0  0  0  0  0  0  0  0
   14.9188   17.4520   23.7514 O   0  0  0  0  0  1  0  0  0  0  0  0
   16.7112   17.7837   22.3897 O   0  0  0  0  0  0  0  0  0  0  0  0
   10.1437   22.8253   25.8033 O   0  0  0  0  0  0  0  0  0  0  0  0
 10  1  1  0
  1 24  1  0
  1 25  1  0
  2  3  2  0
  8  2  1  0
 25  2  1  0
  3  4  1  0
  3  5  1  0
  4 26  1  0
  4 27  2  0
  6  5  2  0
  7  6  1  0
  8  7  2  0
  9  8  1  0
 10  9  1  0
 10 21  1  1
 12 11  1  0
 11 21  1  0
 11 28  2  0
 13 12  1  6
 14 13  1  0
 13 20  1  0
 15 14  1  0
 16 15  1  0
 16 19  1  0
 16 22  1  1
 17 18  1  0
 17 22  1  0
 18 23  1  0
 19 20  1  0
M  CHG  4  22   1  23   1  24   1  26  -1
M  END
$$$$
