
     RDKit          3D

 28 30  0  0  0  0  0  0  0  0999 V2000
   20.0011  -14.6180    0.3382 B   0  0  0  0  0  0  0  0  0  0  0  0
   22.0779  -13.5445    1.1857 C   0  0  0  0  0  0  0  0  0  0  0  0
   22.8439  -12.4058    1.3571 C   0  0  0  0  0  0  0  0  0  0  0  0
   22.3700  -11.1264    0.8742 C   0  0  0  0  0  0  0  0  0  0  0  0
   24.0567  -12.4974    1.9888 C   0  0  0  0  0  0  0  0  0  0  0  0
   24.5427  -13.7151    2.4666 C   0  0  0  0  0  0  0  0  0  0  0  0
   23.7518  -14.8213    2.2765 C   0  0  0  0  0  0  0  0  0  0  0  0
   22.5111  -14.7612    1.6365 C   0  0  0  0  0  0  0  0  0  0  0  0
   21.7892  -16.0345    1.5133 C   0  0  0  0  0  0  0  0  0  0  0  0
   20.7303  -16.0334    0.4428 C   0  0  2  0  0  0  0  0  0  0  0  0
   21.9889  -17.5316   -1.0470 C   0  0  0  0  0  0  0  0  0  0  0  0
   21.5408  -18.7157   -0.2992 C   0  0  0  0  0  0  0  0  0  0  0  0
   21.9050  -19.9746   -1.0566 C   0  0  2  0  0  0  0  0  0  0  0  0
   21.4268  -21.2316   -0.4318 C   0  0  0  0  0  0  0  0  0  0  0  0
   22.4436  -22.0805    0.2452 C   0  0  0  0  0  0  0  0  0  0  0  0
   23.7987  -22.1177   -0.3574 C   0  0  2  0  0  0  0  0  0  0  0  0
   23.5905  -24.2836   -1.2780 C   0  0  0  0  0  0  0  0  0  0  0  0
   24.1879  -25.6532   -1.4986 C   0  0  0  0  0  0  0  0  0  0  0  0
   23.7492  -21.4483   -1.7108 C   0  0  0  0  0  0  0  0  0  0  0  0
   23.3777  -19.9895   -1.4025 C   0  0  0  0  0  0  0  0  0  0  0  0
   21.3862  -16.2836   -0.8181 N   0  0  0  0  0  0  0  0  0  0  0  0
   24.3845  -23.4416   -0.4292 N   0  0  0  0  0  4  0  0  0  0  0  0
   23.6494  -26.6647   -0.6379 N   0  0  0  0  0  4  0  0  0  0  0  0
   18.8377  -14.5592   -0.5613 O   0  0  0  0  0  3  0  0  0  0  0  0
   20.8416  -13.4182    0.5356 O   0  0  0  0  0  0  0  0  0  0  0  0
   23.1969  -10.0180    0.8469 O   0  0  0  0  0  1  0  0  0  0  0  0
   21.1886  -11.0204    0.4734 O   0  0  0  0  0  0  0  0  0  0  0  0
   22.9031  -17.6327   -1.8845 O   0  0  0  0  0  0  0  0  0  0  0  0
 10  1  1  0
  1 24  1  0
  1 25  1  0
  2  3  2  0
  8  2  1  0
 25  2  1  0
  3  4  1  0
  3  5  1  0
  4 26  1  0
  4 27  2  0
  6  5  2  0
  7  6  1  0
  8  7  2  0
  9  8  1  0
 10  9  1  0
 10 21  1  6
 12 11  1  0
 11 21  1  0
 11 28  2  0
 13 12  1  1
 14 13  1  0
 13 20  1  0
 15 14  1  0
 16 15  1  0
 16 19  1  0
 16 22  1  6
 17 18  1  0
 17 22  1  0
 18 23  1  0
 19 20  1  0
M  CHG  4  22   1  23   1  24   1  26  -1
M  END
$$$$
