
     RDKit          3D

 28 30  0  0  0  0  0  0  0  0999 V2000
   19.6309  -14.6669    0.5430 B   0  0  0  0  0  0  0  0  0  0  0  0
   21.7711  -13.7082    1.3698 C   0  0  0  0  0  0  0  0  0  0  0  0
   22.6038  -12.6148    1.5247 C   0  0  0  0  0  0  0  0  0  0  0  0
   22.2042  -11.3154    1.0283 C   0  0  0  0  0  0  0  0  0  0  0  0
   23.8119  -12.7705    2.1530 C   0  0  0  0  0  0  0  0  0  0  0  0
   24.2272  -14.0091    2.6435 C   0  0  0  0  0  0  0  0  0  0  0  0
   23.3715  -15.0688    2.4696 C   0  0  0  0  0  0  0  0  0  0  0  0
   22.1337  -14.9429    1.8336 C   0  0  0  0  0  0  0  0  0  0  0  0
   21.3373  -16.1727    1.7284 C   0  0  0  0  0  0  0  0  0  0  0  0
   20.2756  -16.1217    0.6619 C   0  0  2  0  0  0  0  0  0  0  0  0
   21.9792  -17.3354   -0.6315 C   0  0  0  0  0  0  0  0  0  0  0  0
   21.7700  -18.7342   -0.2294 C   0  0  0  0  0  0  0  0  0  0  0  0
   22.9810  -19.5648   -0.5963 C   0  0  2  0  0  0  0  0  0  0  0  0
   22.7574  -20.5286   -1.7011 C   0  0  0  0  0  0  0  0  0  0  0  0
   22.6476  -21.9659   -1.3337 C   0  0  0  0  0  0  0  0  0  0  0  0
   23.4880  -22.4386   -0.2063 C   0  0  2  0  0  0  0  0  0  0  0  0
   25.2993  -23.5223   -1.2679 C   0  0  0  0  0  0  0  0  0  0  0  0
   26.0176  -24.8080   -1.6029 C   0  0  0  0  0  0  0  0  0  0  0  0
   24.4764  -21.3543    0.1534 C   0  0  0  0  0  0  0  0  0  0  0  0
   23.6032  -20.1853    0.6351 C   0  0  0  0  0  0  0  0  0  0  0  0
   20.9100  -16.4249   -0.5984 N   0  0  0  0  0  0  0  0  0  0  0  0
   24.1416  -23.7109   -0.4409 N   0  0  0  0  0  4  0  0  0  0  0  0
   25.6998  -25.3270   -2.9005 N   0  0  0  0  0  4  0  0  0  0  0  0
   18.4689  -14.5500   -0.3528 O   0  0  0  0  0  3  0  0  0  0  0  0
   20.5416  -13.5167    0.7229 O   0  0  0  0  0  0  0  0  0  0  0  0
   21.0965  -10.6618    1.5368 O   0  0  0  0  0  1  0  0  0  0  0  0
   22.8741  -10.7719    0.1207 O   0  0  0  0  0  0  0  0  0  0  0  0
   23.1041  -16.9552   -1.0020 O   0  0  0  0  0  0  0  0  0  0  0  0
 10  1  1  0
  1 24  1  0
  1 25  1  0
  2  3  2  0
  8  2  1  0
 25  2  1  0
  3  4  1  0
  3  5  1  0
  4 26  1  0
  4 27  2  0
  6  5  2  0
  7  6  1  0
  8  7  2  0
  9  8  1  0
 10  9  1  0
 10 21  1  6
 12 11  1  0
 11 21  1  0
 11 28  2  0
 13 12  1  1
 14 13  1  0
 13 20  1  0
 15 14  1  0
 16 15  1  0
 16 19  1  0
 16 22  1  6
 17 18  1  0
 17 22  1  0
 18 23  1  0
 19 20  1  0
M  CHG  4  22   1  23   1  24   1  26  -1
M  END
$$$$
