
     RDKit          3D

 28 30  0  0  0  0  0  0  0  0999 V2000
   11.2455   19.3738   23.7056 B   0  0  0  0  0  0  0  0  0  0  0  0
   13.3554   19.6248   22.4137 C   0  0  0  0  0  0  0  0  0  0  0  0
   14.6317   19.1793   22.1215 C   0  0  0  0  0  0  0  0  0  0  0  0
   15.1723   18.0174   22.7942 C   0  0  0  0  0  0  0  0  0  0  0  0
   15.3820   19.8463   21.1886 C   0  0  0  0  0  0  0  0  0  0  0  0
   14.8908   20.9693   20.5216 C   0  0  0  0  0  0  0  0  0  0  0  0
   13.6197   21.3790   20.8406 C   0  0  0  0  0  0  0  0  0  0  0  0
   12.8295   20.7209   21.7866 C   0  0  0  0  0  0  0  0  0  0  0  0
   11.4925   21.2858   22.0121 C   0  0  0  0  0  0  0  0  0  0  0  0
   10.8709   20.8764   23.3210 C   0  0  2  0  0  0  0  0  0  0  0  0
   11.0209   23.0886   24.3851 C   0  0  0  0  0  0  0  0  0  0  0  0
   11.3407   23.9143   25.5589 C   0  0  0  0  0  0  0  0  0  0  0  0
   10.9937   25.3616   25.2837 C   0  0  2  0  0  0  0  0  0  0  0  0
   12.0933   26.3213   25.5466 C   0  0  0  0  0  0  0  0  0  0  0  0
   11.9781   27.1654   26.7660 C   0  0  0  0  0  0  0  0  0  0  0  0
   10.6150   27.6015   27.1565 C   0  0  2  0  0  0  0  0  0  0  0  0
   11.8000   29.6307   27.4017 C   0  0  0  0  0  0  0  0  0  0  0  0
   11.7953   31.0900   27.7913 C   0  0  0  0  0  0  0  0  0  0  0  0
    9.6576   27.2723   26.0352 C   0  0  0  0  0  0  0  0  0  0  0  0
    9.6866   25.7387   25.9455 C   0  0  0  0  0  0  0  0  0  0  0  0
   11.4078   21.7387   24.3461 N   0  0  0  0  0  0  0  0  0  0  0  0
   10.5240   28.9921   27.5554 N   0  0  0  0  0  4  0  0  0  0  0  0
   12.9000   31.8337   27.2615 N   0  0  0  0  0  4  0  0  0  0  0  0
   10.5546   18.8198   24.8811 O   0  0  0  0  0  3  0  0  0  0  0  0
   12.6126   18.9208   23.3727 O   0  0  0  0  0  0  0  0  0  0  0  0
   16.2155   17.2919   22.2480 O   0  0  0  0  0  1  0  0  0  0  0  0
   14.6866   17.6618   23.8920 O   0  0  0  0  0  0  0  0  0  0  0  0
   10.4067   23.5840   23.4234 O   0  0  0  0  0  0  0  0  0  0  0  0
 10  1  1  0
  1 24  1  0
  1 25  1  0
  2  3  2  0
  8  2  1  0
 25  2  1  0
  3  4  1  0
  3  5  1  0
  4 26  1  0
  4 27  2  0
  6  5  2  0
  7  6  1  0
  8  7  2  0
  9  8  1  0
 10  9  1  0
 10 21  1  1
 12 11  1  0
 11 21  1  0
 11 28  2  0
 13 12  1  1
 14 13  1  0
 13 20  1  0
 15 14  1  0
 16 15  1  0
 16 19  1  0
 16 22  1  6
 17 18  1  0
 17 22  1  0
 18 23  1  0
 19 20  1  0
M  CHG  4  22   1  23   1  24   1  26  -1
M  END
$$$$
