
     RDKit          3D

 28 30  0  0  0  0  0  0  0  0999 V2000
   11.7294   19.0090   23.3509 B   0  0  0  0  0  0  0  0  0  0  0  0
   13.9256   19.5984   22.3445 C   0  0  0  0  0  0  0  0  0  0  0  0
   15.2302   19.2488   22.0469 C   0  0  0  0  0  0  0  0  0  0  0  0
   15.7441   17.9504   22.4275 C   0  0  0  0  0  0  0  0  0  0  0  0
   16.0343   20.1416   21.3877 C   0  0  0  0  0  0  0  0  0  0  0  0
   15.5703   21.4011   21.0062 C   0  0  0  0  0  0  0  0  0  0  0  0
   14.2696   21.7091   21.3203 C   0  0  0  0  0  0  0  0  0  0  0  0
   13.4246   20.8213   21.9914 C   0  0  0  0  0  0  0  0  0  0  0  0
   12.0618   21.3037   22.2517 C   0  0  0  0  0  0  0  0  0  0  0  0
   11.3514   20.5592   23.3510 C   0  0  2  0  0  0  0  0  0  0  0  0
   11.3274   22.3859   24.9975 C   0  0  0  0  0  0  0  0  0  0  0  0
   11.0177   23.4027   23.9815 C   0  0  0  0  0  0  0  0  0  0  0  0
   12.0899   24.4711   23.9748 C   0  0  2  0  0  0  0  0  0  0  0  0
   12.2969   25.1468   25.2786 C   0  0  0  0  0  0  0  0  0  0  0  0
   11.7785   26.5348   25.4116 C   0  0  0  0  0  0  0  0  0  0  0  0
   11.8426   27.3957   24.2052 C   0  0  2  0  0  0  0  0  0  0  0  0
   13.6443   28.7209   24.9667 C   0  0  0  0  0  0  0  0  0  0  0  0
   14.1765   30.0854   25.3357 C   0  0  0  0  0  0  0  0  0  0  0  0
   12.6795   26.7030   23.1555 C   0  0  0  0  0  0  0  0  0  0  0  0
   11.8921   25.4272   22.8192 C   0  0  0  0  0  0  0  0  0  0  0  0
   11.7889   21.1176   24.6077 N   0  0  0  0  0  0  0  0  0  0  0  0
   12.3021   28.7468   24.4592 N   0  0  0  0  0  4  0  0  0  0  0  0
   14.8354   30.7605   24.2567 N   0  0  0  0  0  4  0  0  0  0  0  0
   10.9635   18.1606   24.2781 O   0  0  0  0  0  3  0  0  0  0  0  0
   13.1278   18.6632   23.0196 O   0  0  0  0  0  0  0  0  0  0  0  0
   17.0366   17.5699   22.1156 O   0  0  0  0  0  1  0  0  0  0  0  0
   15.0044   17.1558   23.0513 O   0  0  0  0  0  0  0  0  0  0  0  0
   11.1814   22.6469   26.2049 O   0  0  0  0  0  0  0  0  0  0  0  0
 10  1  1  0
  1 24  1  0
  1 25  1  0
  2  3  2  0
  8  2  1  0
 25  2  1  0
  3  4  1  0
  3  5  1  0
  4 26  1  0
  4 27  2  0
  6  5  2  0
  7  6  1  0
  8  7  2  0
  9  8  1  0
 10  9  1  0
 10 21  1  1
 12 11  1  0
 11 21  1  0
 11 28  2  0
 13 12  1  1
 14 13  1  0
 13 20  1  0
 15 14  1  0
 16 15  1  0
 16 19  1  0
 16 22  1  1
 17 18  1  0
 17 22  1  0
 18 23  1  0
 19 20  1  0
M  CHG  4  22   1  23   1  24   1  26  -1
M  END
$$$$
