
     RDKit          3D

 28 30  0  0  0  0  0  0  0  0999 V2000
   19.5263  -14.3447    0.3987 B   0  0  0  0  0  0  0  0  0  0  0  0
   21.7419  -13.5542    1.2048 C   0  0  0  0  0  0  0  0  0  0  0  0
   22.6591  -12.5292    1.3488 C   0  0  0  0  0  0  0  0  0  0  0  0
   22.3587  -11.2040    0.8504 C   0  0  0  0  0  0  0  0  0  0  0  0
   23.8563  -12.7771    1.9682 C   0  0  0  0  0  0  0  0  0  0  0  0
   24.1771  -14.0428    2.4603 C   0  0  0  0  0  0  0  0  0  0  0  0
   23.2395  -15.0326    2.2973 C   0  0  0  0  0  0  0  0  0  0  0  0
   22.0102  -14.8121    1.6706 C   0  0  0  0  0  0  0  0  0  0  0  0
   21.1189  -15.9759    1.5765 C   0  0  0  0  0  0  0  0  0  0  0  0
   20.0558  -15.8452    0.5182 C   0  0  2  0  0  0  0  0  0  0  0  0
   21.7187  -17.1178   -0.7717 C   0  0  0  0  0  0  0  0  0  0  0  0
   21.4550  -18.5496   -0.9772 C   0  0  0  0  0  0  0  0  0  0  0  0
   22.6685  -19.3618   -0.5784 C   0  0  2  0  0  0  0  0  0  0  0  0
   23.9043  -19.0360   -1.3306 C   0  0  0  0  0  0  0  0  0  0  0  0
   24.3495  -20.0155   -2.3578 C   0  0  0  0  0  0  0  0  0  0  0  0
   24.1143  -21.4509   -2.0659 C   0  0  2  0  0  0  0  0  0  0  0  0
   26.3959  -21.9017   -1.6498 C   0  0  0  0  0  0  0  0  0  0  0  0
   27.6675  -22.5803   -2.1016 C   0  0  0  0  0  0  0  0  0  0  0  0
   23.6823  -21.5912   -0.6252 C   0  0  0  0  0  0  0  0  0  0  0  0
   22.3444  -20.8392   -0.5521 C   0  0  0  0  0  0  0  0  0  0  0  0
   20.6541  -16.2016   -0.7458 N   0  0  0  0  0  0  0  0  0  0  0  0
   25.2334  -22.3161   -2.3824 N   0  0  0  0  0  4  0  0  0  0  0  0
   28.0238  -22.2957   -3.4603 N   0  0  0  0  0  4  0  0  0  0  0  0
   18.3699  -14.1399   -0.4884 O   0  0  0  0  0  3  0  0  0  0  0  0
   20.5259  -13.2690    0.5668 O   0  0  0  0  0  0  0  0  0  0  0  0
   21.2421  -10.5107    1.2811 O   0  0  0  0  0  1  0  0  0  0  0  0
   23.1242  -10.6745    0.0130 O   0  0  0  0  0  0  0  0  0  0  0  0
   22.8856  -16.7145   -0.6203 O   0  0  0  0  0  0  0  0  0  0  0  0
 10  1  1  0
  1 24  1  0
  1 25  1  0
  2  3  2  0
  8  2  1  0
 25  2  1  0
  3  4  1  0
  3  5  1  0
  4 26  1  0
  4 27  2  0
  6  5  2  0
  7  6  1  0
  8  7  2  0
  9  8  1  0
 10  9  1  0
 10 21  1  6
 12 11  1  0
 11 21  1  0
 11 28  2  0
 13 12  1  6
 14 13  1  0
 13 20  1  0
 15 14  1  0
 16 15  1  0
 16 19  1  0
 16 22  1  1
 17 18  1  0
 17 22  1  0
 18 23  1  0
 19 20  1  0
M  CHG  4  22   1  23   1  24   1  26  -1
M  END
$$$$
