
     RDKit          3D

 28 30  0  0  0  0  0  0  0  0999 V2000
   11.5312   19.8416   23.4384 B   0  0  0  0  0  0  0  0  0  0  0  0
   13.6648   19.7434   22.1650 C   0  0  0  0  0  0  0  0  0  0  0  0
   14.9996   19.3862   22.1057 C   0  0  0  0  0  0  0  0  0  0  0  0
   15.6371   18.7497   23.2385 C   0  0  0  0  0  0  0  0  0  0  0  0
   15.7156   19.6392   20.9648 C   0  0  0  0  0  0  0  0  0  0  0  0
   15.1315   20.2508   19.8549 C   0  0  0  0  0  0  0  0  0  0  0  0
   13.8046   20.5895   19.9545 C   0  0  0  0  0  0  0  0  0  0  0  0
   13.0473   20.3453   21.1031 C   0  0  0  0  0  0  0  0  0  0  0  0
   11.6417   20.7682   21.0481 C   0  0  0  0  0  0  0  0  0  0  0  0
   11.0013   20.9320   22.4010 C   0  0  2  0  0  0  0  0  0  0  0  0
   11.2533   22.5022   24.2770 C   0  0  0  0  0  0  0  0  0  0  0  0
   12.2662   23.3212   24.9592 C   0  0  0  0  0  0  0  0  0  0  0  0
   11.6045   24.4966   25.6461 C   0  0  2  0  0  0  0  0  0  0  0  0
   10.7617   25.3355   24.7600 C   0  0  0  0  0  0  0  0  0  0  0  0
   11.3069   26.6617   24.3640 C   0  0  0  0  0  0  0  0  0  0  0  0
   12.1244   27.3814   25.3713 C   0  0  2  0  0  0  0  0  0  0  0  0
   10.8061   29.0075   26.4667 C   0  0  0  0  0  0  0  0  0  0  0  0
   10.1846   30.3828   26.4059 C   0  0  0  0  0  0  0  0  0  0  0  0
   11.9966   26.6731   26.6995 C   0  0  0  0  0  0  0  0  0  0  0  0
   12.6107   25.2862   26.4539 C   0  0  0  0  0  0  0  0  0  0  0  0
   11.3728   22.2329   22.9035 N   0  0  0  0  0  0  0  0  0  0  0  0
   11.8278   28.7959   25.4812 N   0  0  0  0  0  4  0  0  0  0  0  0
   10.3691   31.1542   27.5996 N   0  0  0  0  0  4  0  0  0  0  0  0
   10.8470   19.8077   24.7411 O   0  0  0  0  0  3  0  0  0  0  0  0
   12.9592   19.4712   23.3461 O   0  0  0  0  0  0  0  0  0  0  0  0
   15.8052   17.3779   23.2907 O   0  0  0  0  0  1  0  0  0  0  0  0
   16.0445   19.4542   24.1900 O   0  0  0  0  0  0  0  0  0  0  0  0
   10.2879   22.0459   24.9152 O   0  0  0  0  0  0  0  0  0  0  0  0
 10  1  1  0
  1 24  1  0
  1 25  1  0
  2  3  2  0
  8  2  1  0
 25  2  1  0
  3  4  1  0
  3  5  1  0
  4 26  1  0
  4 27  2  0
  6  5  2  0
  7  6  1  0
  8  7  2  0
  9  8  1  0
 10  9  1  0
 10 21  1  1
 12 11  1  0
 11 21  1  0
 11 28  2  0
 13 12  1  6
 14 13  1  0
 13 20  1  0
 15 14  1  0
 16 15  1  0
 16 19  1  0
 16 22  1  1
 17 18  1  0
 17 22  1  0
 18 23  1  0
 19 20  1  0
M  CHG  4  22   1  23   1  24   1  26  -1
M  END
$$$$
