
     RDKit          3D

 28 30  0  0  0  0  0  0  0  0999 V2000
   11.1789   19.5552   23.3350 B   0  0  0  0  0  0  0  0  0  0  0  0
   13.4811   19.9399   22.4772 C   0  0  0  0  0  0  0  0  0  0  0  0
   14.7767   19.4884   22.3029 C   0  0  0  0  0  0  0  0  0  0  0  0
   15.1677   18.1828   22.7899 C   0  0  0  0  0  0  0  0  0  0  0  0
   15.6892   20.2871   21.6642 C   0  0  0  0  0  0  0  0  0  0  0  0
   15.3450   21.5506   21.1823 C   0  0  0  0  0  0  0  0  0  0  0  0
   14.0491   21.9612   21.3755 C   0  0  0  0  0  0  0  0  0  0  0  0
   13.0953   21.1710   22.0225 C   0  0  0  0  0  0  0  0  0  0  0  0
   11.7540   21.7564   22.1482 C   0  0  0  0  0  0  0  0  0  0  0  0
   10.9118   21.1245   23.2246 C   0  0  2  0  0  0  0  0  0  0  0  0
   10.7391   22.9618   24.8502 C   0  0  0  0  0  0  0  0  0  0  0  0
   11.2616   24.2059   24.2660 C   0  0  0  0  0  0  0  0  0  0  0  0
   10.6204   25.4018   24.9365 C   0  0  2  0  0  0  0  0  0  0  0  0
    9.7652   26.2241   24.0468 C   0  0  0  0  0  0  0  0  0  0  0  0
   10.3101   27.5368   23.6078 C   0  0  0  0  0  0  0  0  0  0  0  0
   11.1515   28.2757   24.5808 C   0  0  2  0  0  0  0  0  0  0  0  0
   11.0898   30.3133   23.3865 C   0  0  0  0  0  0  0  0  0  0  0  0
   10.9303   31.8151   23.4081 C   0  0  0  0  0  0  0  0  0  0  0  0
   11.0458   27.6009   25.9283 C   0  0  0  0  0  0  0  0  0  0  0  0
   11.6469   26.2046   25.7049 C   0  0  0  0  0  0  0  0  0  0  0  0
   11.2909   21.7237   24.4815 N   0  0  0  0  0  0  0  0  0  0  0  0
   10.8653   29.6944   24.6617 N   0  0  0  0  0  4  0  0  0  0  0  0
    9.5948   32.2590   23.1372 N   0  0  0  0  0  4  0  0  0  0  0  0
   10.2872   18.8135   24.2410 O   0  0  0  0  0  3  0  0  0  0  0  0
   12.5706   19.0995   23.1343 O   0  0  0  0  0  0  0  0  0  0  0  0
   14.8175   17.0291   22.1124 O   0  0  0  0  0  1  0  0  0  0  0  0
   15.8359   18.0956   23.8451 O   0  0  0  0  0  0  0  0  0  0  0  0
    9.8068   23.0032   25.6727 O   0  0  0  0  0  0  0  0  0  0  0  0
 10  1  1  0
  1 24  1  0
  1 25  1  0
  2  3  2  0
  8  2  1  0
 25  2  1  0
  3  4  1  0
  3  5  1  0
  4 26  1  0
  4 27  2  0
  6  5  2  0
  7  6  1  0
  8  7  2  0
  9  8  1  0
 10  9  1  0
 10 21  1  1
 12 11  1  0
 11 21  1  0
 11 28  2  0
 13 12  1  6
 14 13  1  0
 13 20  1  0
 15 14  1  0
 16 15  1  0
 16 19  1  0
 16 22  1  1
 17 18  1  0
 17 22  1  0
 18 23  1  0
 19 20  1  0
M  CHG  4  22   1  23   1  24   1  26  -1
M  END
$$$$
