
     RDKit          3D

 28 30  0  0  0  0  0  0  0  0999 V2000
   11.4124   19.6516   23.3398 B   0  0  0  0  0  0  0  0  0  0  0  0
   13.6250   19.8029   22.2149 C   0  0  0  0  0  0  0  0  0  0  0  0
   14.8408   19.2246   21.8984 C   0  0  0  0  0  0  0  0  0  0  0  0
   15.1561   17.8884   22.3566 C   0  0  0  0  0  0  0  0  0  0  0  0
   15.7462   19.9264   21.1462 C   0  0  0  0  0  0  0  0  0  0  0  0
   15.4736   21.2160   20.6882 C   0  0  0  0  0  0  0  0  0  0  0  0
   14.2557   21.7539   21.0242 C   0  0  0  0  0  0  0  0  0  0  0  0
   13.3113   21.0645   21.7893 C   0  0  0  0  0  0  0  0  0  0  0  0
   12.0578   21.7805   22.0609 C   0  0  0  0  0  0  0  0  0  0  0  0
   11.2894   21.2392   23.2372 C   0  0  2  0  0  0  0  0  0  0  0  0
   12.0086   23.1961   24.5416 C   0  0  0  0  0  0  0  0  0  0  0  0
   10.8643   24.0758   24.2614 C   0  0  0  0  0  0  0  0  0  0  0  0
   10.7935   25.1783   25.2961 C   0  0  2  0  0  0  0  0  0  0  0  0
    9.5488   25.9836   25.2565 C   0  0  0  0  0  0  0  0  0  0  0  0
    9.6490   27.3574   24.6948 C   0  0  0  0  0  0  0  0  0  0  0  0
   10.9071   28.1001   24.9529 C   0  0  2  0  0  0  0  0  0  0  0  0
   10.1929   29.5603   26.6675 C   0  0  0  0  0  0  0  0  0  0  0  0
    9.8254   30.9617   27.0943 C   0  0  0  0  0  0  0  0  0  0  0  0
   11.7202   27.3417   25.9755 C   0  0  0  0  0  0  0  0  0  0  0  0
   12.0567   26.0106   25.2856 C   0  0  0  0  0  0  0  0  0  0  0  0
   11.8698   21.8025   24.4324 N   0  0  0  0  0  0  0  0  0  0  0  0
   10.7155   29.4857   25.3330 N   0  0  0  0  0  4  0  0  0  0  0  0
   10.6667   31.4914   28.1266 N   0  0  0  0  0  4  0  0  0  0  0  0
   10.5643   19.0053   24.3543 O   0  0  0  0  0  3  0  0  0  0  0  0
   12.7196   19.0593   22.9860 O   0  0  0  0  0  0  0  0  0  0  0  0
   15.6005   16.9149   21.4805 O   0  0  0  0  0  1  0  0  0  0  0  0
   15.0242   17.6079   23.5697 O   0  0  0  0  0  0  0  0  0  0  0  0
   13.1027   23.6843   24.8763 O   0  0  0  0  0  0  0  0  0  0  0  0
 10  1  1  0
  1 24  1  0
  1 25  1  0
  2  3  2  0
  8  2  1  0
 25  2  1  0
  3  4  1  0
  3  5  1  0
  4 26  1  0
  4 27  2  0
  6  5  2  0
  7  6  1  0
  8  7  2  0
  9  8  1  0
 10  9  1  0
 10 21  1  1
 12 11  1  0
 11 21  1  0
 11 28  2  0
 13 12  1  6
 14 13  1  0
 13 20  1  0
 15 14  1  0
 16 15  1  0
 16 19  1  0
 16 22  1  1
 17 18  1  0
 17 22  1  0
 18 23  1  0
 19 20  1  0
M  CHG  4  22   1  23   1  24   1  26  -1
M  END
$$$$
