
     RDKit          3D

 28 30  0  0  0  0  0  0  0  0999 V2000
   11.5978   19.4723   23.8780 B   0  0  0  0  0  0  0  0  0  0  0  0
   13.6241   19.6576   22.4486 C   0  0  0  0  0  0  0  0  0  0  0  0
   14.8943   19.2184   22.1225 C   0  0  0  0  0  0  0  0  0  0  0  0
   15.5049   18.1340   22.8614 C   0  0  0  0  0  0  0  0  0  0  0  0
   15.5718   19.8176   21.0929 C   0  0  0  0  0  0  0  0  0  0  0  0
   15.0120   20.8650   20.3602 C   0  0  0  0  0  0  0  0  0  0  0  0
   13.7494   21.2711   20.7156 C   0  0  0  0  0  0  0  0  0  0  0  0
   13.0326   20.6810   21.7599 C   0  0  0  0  0  0  0  0  0  0  0  0
   11.6946   21.2317   22.0127 C   0  0  0  0  0  0  0  0  0  0  0  0
   11.1591   20.9255   23.3863 C   0  0  2  0  0  0  0  0  0  0  0  0
   11.2073   23.1922   24.3393 C   0  0  0  0  0  0  0  0  0  0  0  0
   11.0283   23.8760   25.6287 C   0  0  0  0  0  0  0  0  0  0  0  0
   11.4452   25.3260   25.5078 C   0  0  2  0  0  0  0  0  0  0  0  0
   11.5723   26.0420   26.8002 C   0  0  0  0  0  0  0  0  0  0  0  0
   10.5020   27.0169   27.1421 C   0  0  0  0  0  0  0  0  0  0  0  0
    9.9052   27.7823   26.0202 C   0  0  2  0  0  0  0  0  0  0  0  0
   10.9413   29.9052   26.0631 C   0  0  0  0  0  0  0  0  0  0  0  0
   10.7820   31.4068   26.0967 C   0  0  0  0  0  0  0  0  0  0  0  0
   10.7343   27.5538   24.7783 C   0  0  0  0  0  0  0  0  0  0  0  0
   10.5892   26.0510   24.4928 C   0  0  0  0  0  0  0  0  0  0  0  0
   11.7275   21.8879   24.2992 N   0  0  0  0  0  0  0  0  0  0  0  0
    9.7166   29.1934   26.2933 N   0  0  0  0  0  4  0  0  0  0  0  0
   12.0157   32.1158   26.2680 N   0  0  0  0  0  4  0  0  0  0  0  0
   10.9899   19.0085   25.1356 O   0  0  0  0  0  3  0  0  0  0  0  0
   12.9566   19.0242   23.5070 O   0  0  0  0  0  0  0  0  0  0  0  0
   16.7714   17.6750   22.5480 O   0  0  0  0  0  1  0  0  0  0  0  0
   14.8748   17.6007   23.8028 O   0  0  0  0  0  0  0  0  0  0  0  0
   10.8982   23.7677   23.2807 O   0  0  0  0  0  0  0  0  0  0  0  0
 10  1  1  0
  1 24  1  0
  1 25  1  0
  2  3  2  0
  8  2  1  0
 25  2  1  0
  3  4  1  0
  3  5  1  0
  4 26  1  0
  4 27  2  0
  6  5  2  0
  7  6  1  0
  8  7  2  0
  9  8  1  0
 10  9  1  0
 10 21  1  1
 12 11  1  0
 11 21  1  0
 11 28  2  0
 13 12  1  1
 14 13  1  0
 13 20  1  0
 15 14  1  0
 16 15  1  0
 16 19  1  0
 16 22  1  1
 17 18  1  0
 17 22  1  0
 18 23  1  0
 19 20  1  0
M  CHG  4  22   1  23   1  24   1  26  -1
M  END
$$$$
