
     RDKit          3D

 28 30  0  0  0  0  0  0  0  0999 V2000
   19.5542  -14.6962    0.3217 B   0  0  0  0  0  0  0  0  0  0  0  0
   21.7783  -13.8046    0.9866 C   0  0  0  0  0  0  0  0  0  0  0  0
   22.6895  -12.7642    0.9932 C   0  0  0  0  0  0  0  0  0  0  0  0
   22.3683  -11.5070    0.3521 C   0  0  0  0  0  0  0  0  0  0  0  0
   23.9005  -12.9320    1.6126 C   0  0  0  0  0  0  0  0  0  0  0  0
   24.2415  -14.1307    2.2403 C   0  0  0  0  0  0  0  0  0  0  0  0
   23.3092  -15.1384    2.2111 C   0  0  0  0  0  0  0  0  0  0  0  0
   22.0662  -14.9989    1.5883 C   0  0  0  0  0  0  0  0  0  0  0  0
   21.1830  -16.1712    1.6466 C   0  0  0  0  0  0  0  0  0  0  0  0
   20.0985  -16.1696    0.6021 C   0  0  2  0  0  0  0  0  0  0  0  0
   21.2712  -17.9372   -0.6424 C   0  0  0  0  0  0  0  0  0  0  0  0
   22.5635  -18.1371   -1.3148 C   0  0  0  0  0  0  0  0  0  0  0  0
   23.6871  -18.0882   -0.3018 C   0  0  2  0  0  0  0  0  0  0  0  0
   25.0209  -17.7816   -0.8730 C   0  0  0  0  0  0  0  0  0  0  0  0
   25.9878  -18.9073   -0.9769 C   0  0  0  0  0  0  0  0  0  0  0  0
   25.9499  -19.9287    0.0983 C   0  0  2  0  0  0  0  0  0  0  0  0
   28.1627  -19.2267    0.5372 C   0  0  0  0  0  0  0  0  0  0  0  0
   29.5696  -19.5812    0.9570 C   0  0  0  0  0  0  0  0  0  0  0  0
   25.0663  -19.4273    1.2164 C   0  0  0  0  0  0  0  0  0  0  0  0
   23.6716  -19.3165    0.5812 C   0  0  0  0  0  0  0  0  0  0  0  0
   20.6751  -16.6653   -0.6245 N   0  0  0  0  0  0  0  0  0  0  0  0
   27.2544  -20.3370    0.5807 N   0  0  0  0  0  4  0  0  0  0  0  0
   29.7070  -19.8387    2.3602 N   0  0  0  0  0  4  0  0  0  0  0  0
   18.3791  -14.6018   -0.5594 O   0  0  0  0  0  3  0  0  0  0  0  0
   20.5478  -13.6021    0.3448 O   0  0  0  0  0  0  0  0  0  0  0  0
   23.0691  -11.0663   -0.7559 O   0  0  0  0  0  1  0  0  0  0  0  0
   21.4381  -10.8045    0.8090 O   0  0  0  0  0  0  0  0  0  0  0  0
   20.7029  -18.8946   -0.0876 O   0  0  0  0  0  0  0  0  0  0  0  0
 10  1  1  0
  1 24  1  0
  1 25  1  0
  2  3  2  0
  8  2  1  0
 25  2  1  0
  3  4  1  0
  3  5  1  0
  4 26  1  0
  4 27  2  0
  6  5  2  0
  7  6  1  0
  8  7  2  0
  9  8  1  0
 10  9  1  0
 10 21  1  6
 12 11  1  0
 11 21  1  0
 11 28  2  0
 13 12  1  6
 14 13  1  0
 13 20  1  0
 15 14  1  0
 16 15  1  0
 16 19  1  0
 16 22  1  1
 17 18  1  0
 17 22  1  0
 18 23  1  0
 19 20  1  0
M  CHG  4  22   1  23   1  24   1  26  -1
M  END
$$$$
