
     RDKit          3D

 28 30  0  0  0  0  0  0  0  0999 V2000
   21.6774  -15.4414   -0.8630 B   0  0  0  0  0  0  0  0  0  0  0  0
   21.2999  -13.8071    0.9728 C   0  0  0  0  0  0  0  0  0  0  0  0
   21.4410  -12.5251    1.4721 C   0  0  0  0  0  0  0  0  0  0  0  0
   22.1023  -11.5039    0.6882 C   0  0  0  0  0  0  0  0  0  0  0  0
   20.9491  -12.2277    2.7163 C   0  0  0  0  0  0  0  0  0  0  0  0
   20.3061  -13.1885    3.4977 C   0  0  0  0  0  0  0  0  0  0  0  0
   20.1866  -14.4486    2.9655 C   0  0  0  0  0  0  0  0  0  0  0  0
   20.6771  -14.7836    1.7007 C   0  0  0  0  0  0  0  0  0  0  0  0
   20.4683  -16.1748    1.2782 C   0  0  0  0  0  0  0  0  0  0  0  0
   21.3883  -16.6204    0.1725 C   0  0  2  0  0  0  0  0  0  0  0  0
   23.5296  -17.8257    0.0708 C   0  0  0  0  0  0  0  0  0  0  0  0
   23.0661  -19.1196   -0.4517 C   0  0  0  0  0  0  0  0  0  0  0  0
   24.0482  -19.6458   -1.4763 C   0  0  2  0  0  0  0  0  0  0  0  0
   23.4360  -20.0653   -2.7602 C   0  0  0  0  0  0  0  0  0  0  0  0
   23.3308  -21.5272   -3.0143 C   0  0  0  0  0  0  0  0  0  0  0  0
   24.4280  -22.3811   -2.4968 C   0  0  2  0  0  0  0  0  0  0  0  0
   25.6922  -22.7948   -4.4495 C   0  0  0  0  0  0  0  0  0  0  0  0
   26.1993  -23.7812   -5.4748 C   0  0  0  0  0  0  0  0  0  0  0  0
   25.5579  -21.4937   -2.0300 C   0  0  0  0  0  0  0  0  0  0  0  0
   24.9571  -20.6900   -0.8663 C   0  0  0  0  0  0  0  0  0  0  0  0
   22.6452  -16.9926    0.7760 N   0  0  0  0  0  0  0  0  0  0  0  0
   24.8847  -23.3953   -3.4263 N   0  0  0  0  0  4  0  0  0  0  0  0
   25.9550  -25.1507   -5.1301 N   0  0  0  0  0  4  0  0  0  0  0  0
   22.4296  -15.8169   -2.0711 O   0  0  0  0  0  3  0  0  0  0  0  0
   21.8136  -14.0801   -0.3034 O   0  0  0  0  0  0  0  0  0  0  0  0
   21.5911  -11.0886   -0.5280 O   0  0  0  0  0  1  0  0  0  0  0  0
   23.1577  -10.9860    1.1189 O   0  0  0  0  0  0  0  0  0  0  0  0
   24.7064  -17.4658   -0.1107 O   0  0  0  0  0  0  0  0  0  0  0  0
 10  1  1  0
  1 24  1  0
  1 25  1  0
  2  3  2  0
  8  2  1  0
 25  2  1  0
  3  4  1  0
  3  5  1  0
  4 26  1  0
  4 27  2  0
  6  5  2  0
  7  6  1  0
  8  7  2  0
  9  8  1  0
 10  9  1  0
 10 21  1  1
 12 11  1  0
 11 21  1  0
 11 28  2  0
 13 12  1  1
 14 13  1  0
 13 20  1  0
 15 14  1  0
 16 15  1  0
 16 19  1  0
 16 22  1  6
 17 18  1  0
 17 22  1  0
 18 23  1  0
 19 20  1  0
M  CHG  4  22   1  23   1  24   1  26  -1
M  END
$$$$
