
     RDKit          3D

 28 30  0  0  0  0  0  0  0  0999 V2000
   19.5020  -14.6334    0.7509 B   0  0  0  0  0  0  0  0  0  0  0  0
   21.8121  -13.8660    1.2594 C   0  0  0  0  0  0  0  0  0  0  0  0
   22.7409  -12.8427    1.3138 C   0  0  0  0  0  0  0  0  0  0  0  0
   22.3713  -11.4985    0.9249 C   0  0  0  0  0  0  0  0  0  0  0  0
   24.0157  -13.1107    1.7397 C   0  0  0  0  0  0  0  0  0  0  0  0
   24.4046  -14.3951    2.1221 C   0  0  0  0  0  0  0  0  0  0  0  0
   23.4528  -15.3824    2.0535 C   0  0  0  0  0  0  0  0  0  0  0  0
   22.1451  -15.1417    1.6238 C   0  0  0  0  0  0  0  0  0  0  0  0
   21.2492  -16.3057    1.6086 C   0  0  0  0  0  0  0  0  0  0  0  0
   20.0427  -16.1344    0.7241 C   0  0  2  0  0  0  0  0  0  0  0  0
   20.8081  -17.7450   -0.9696 C   0  0  0  0  0  0  0  0  0  0  0  0
   21.4957  -18.5999    0.0094 C   0  0  0  0  0  0  0  0  0  0  0  0
   22.8899  -18.9287   -0.4796 C   0  0  2  0  0  0  0  0  0  0  0  0
   22.9373  -19.8752   -1.6202 C   0  0  0  0  0  0  0  0  0  0  0  0
   23.3761  -21.2662   -1.3278 C   0  0  0  0  0  0  0  0  0  0  0  0
   24.4163  -21.4386   -0.2842 C   0  0  2  0  0  0  0  0  0  0  0  0
   26.5309  -21.7061   -1.3034 C   0  0  0  0  0  0  0  0  0  0  0  0
   27.3654  -22.6138   -2.1760 C   0  0  0  0  0  0  0  0  0  0  0  0
   24.9790  -20.0827    0.0723 C   0  0  0  0  0  0  0  0  0  0  0  0
   23.7879  -19.3204    0.6732 C   0  0  0  0  0  0  0  0  0  0  0  0
   20.4495  -16.4303   -0.6285 N   0  0  0  0  0  0  0  0  0  0  0  0
   25.4593  -22.3836   -0.6308 N   0  0  0  0  0  4  0  0  0  0  0  0
   28.0099  -23.6738   -1.4582 N   0  0  0  0  0  4  0  0  0  0  0  0
   18.2283  -14.3964    0.0526 O   0  0  0  0  0  3  0  0  0  0  0  0
   20.5159  -13.5600    0.8195 O   0  0  0  0  0  0  0  0  0  0  0  0
   21.0788  -11.0336    1.0870 O   0  0  0  0  0  1  0  0  0  0  0  0
   23.2382  -10.7414    0.4320 O   0  0  0  0  0  0  0  0  0  0  0  0
   20.5423  -18.1845   -2.1025 O   0  0  0  0  0  0  0  0  0  0  0  0
 10  1  1  0
  1 24  1  0
  1 25  1  0
  2  3  2  0
  8  2  1  0
 25  2  1  0
  3  4  1  0
  3  5  1  0
  4 26  1  0
  4 27  2  0
  6  5  2  0
  7  6  1  0
  8  7  2  0
  9  8  1  0
 10  9  1  0
 10 21  1  6
 12 11  1  0
 11 21  1  0
 11 28  2  0
 13 12  1  1
 14 13  1  0
 13 20  1  0
 15 14  1  0
 16 15  1  0
 16 19  1  0
 16 22  1  6
 17 18  1  0
 17 22  1  0
 18 23  1  0
 19 20  1  0
M  CHG  4  22   1  23   1  24   1  26  -1
M  END
$$$$
