
     RDKit          3D

 28 30  0  0  0  0  0  0  0  0999 V2000
   20.0781  -14.4790    0.4182 B   0  0  0  0  0  0  0  0  0  0  0  0
   21.4566  -16.5425    0.5774 C   0  0  0  0  0  0  0  0  0  0  0  0
   21.5839  -17.8603    0.9773 C   0  0  0  0  0  0  0  0  0  0  0  0
   20.4871  -18.5322    1.6409 C   0  0  0  0  0  0  0  0  0  0  0  0
   22.7576  -18.5269    0.7399 C   0  0  0  0  0  0  0  0  0  0  0  0
   23.8341  -17.9090    0.1023 C   0  0  0  0  0  0  0  0  0  0  0  0
   23.6670  -16.6004   -0.2787 C   0  0  0  0  0  0  0  0  0  0  0  0
   22.4834  -15.8933   -0.0514 C   0  0  0  0  0  0  0  0  0  0  0  0
   22.4662  -14.5014   -0.5204 C   0  0  0  0  0  0  0  0  0  0  0  0
   21.4121  -13.6500    0.1364 C   0  0  2  0  0  0  0  0  0  0  0  0
   22.5137  -11.9390    1.5173 C   0  0  0  0  0  0  0  0  0  0  0  0
   23.9542  -11.8017    1.7782 C   0  0  0  0  0  0  0  0  0  0  0  0
   24.4704  -13.0324    2.4923 C   0  0  2  0  0  0  0  0  0  0  0  0
   23.8529  -13.2824    3.8172 C   0  0  0  0  0  0  0  0  0  0  0  0
   24.6828  -12.9908    5.0168 C   0  0  0  0  0  0  0  0  0  0  0  0
   26.1389  -13.2531    4.9079 C   0  0  2  0  0  0  0  0  0  0  0  0
   28.0782  -14.2717    5.7931 C   0  0  0  0  0  0  0  0  0  0  0  0
   28.7975  -14.8512    6.9882 C   0  0  0  0  0  0  0  0  0  0  0  0
   26.4029  -14.0166    3.6314 C   0  0  0  0  0  0  0  0  0  0  0  0
   25.9830  -13.0496    2.5136 C   0  0  0  0  0  0  0  0  0  0  0  0
   21.9353  -13.2145    1.4089 N   0  0  0  0  0  0  0  0  0  0  0  0
   26.7150  -13.9132    6.0627 N   0  0  0  0  0  4  0  0  0  0  0  0
   28.6563  -16.2717    7.1154 N   0  0  0  0  0  4  0  0  0  0  0  0
   18.9279  -13.7001    0.9045 O   0  0  0  0  0  3  0  0  0  0  0  0
   20.2432  -15.8877    0.8342 O   0  0  0  0  0  0  0  0  0  0  0  0
   20.4507  -19.9103    1.7518 O   0  0  0  0  0  1  0  0  0  0  0  0
   19.5528  -17.8530    2.1241 O   0  0  0  0  0  0  0  0  0  0  0  0
   21.8039  -10.9252    1.3919 O   0  0  0  0  0  0  0  0  0  0  0  0
 10  1  1  0
  1 24  1  0
  1 25  1  0
  2  3  2  0
  8  2  1  0
 25  2  1  0
  3  4  1  0
  3  5  1  0
  4 26  1  0
  4 27  2  0
  6  5  2  0
  7  6  1  0
  8  7  2  0
  9  8  1  0
 10  9  1  0
 10 21  1  1
 12 11  1  0
 11 21  1  0
 11 28  2  0
 13 12  1  1
 14 13  1  0
 13 20  1  0
 15 14  1  0
 16 15  1  0
 16 19  1  0
 16 22  1  1
 17 18  1  0
 17 22  1  0
 18 23  1  0
 19 20  1  0
M  CHG  4  22   1  23   1  24   1  26  -1
M  END
$$$$
