
     RDKit          3D

 28 30  0  0  0  0  0  0  0  0999 V2000
   11.4036   19.0122   23.7245 B   0  0  0  0  0  0  0  0  0  0  0  0
   13.5247   19.4707   22.5102 C   0  0  0  0  0  0  0  0  0  0  0  0
   14.8379   19.1317   22.2397 C   0  0  0  0  0  0  0  0  0  0  0  0
   15.4436   17.9841   22.8806 C   0  0  0  0  0  0  0  0  0  0  0  0
   15.5629   19.8910   21.3587 C   0  0  0  0  0  0  0  0  0  0  0  0
   15.0093   21.0032   20.7234 C   0  0  0  0  0  0  0  0  0  0  0  0
   13.7030   21.3058   21.0193 C   0  0  0  0  0  0  0  0  0  0  0  0
   12.9373   20.5519   21.9126 C   0  0  0  0  0  0  0  0  0  0  0  0
   11.5565   21.0084   22.1194 C   0  0  0  0  0  0  0  0  0  0  0  0
   10.9303   20.4990   23.3905 C   0  0  2  0  0  0  0  0  0  0  0  0
   11.0803   22.7259   24.4232 C   0  0  0  0  0  0  0  0  0  0  0  0
   11.4289   23.5909   25.5600 C   0  0  0  0  0  0  0  0  0  0  0  0
   11.7495   24.9864   25.0693 C   0  0  2  0  0  0  0  0  0  0  0  0
   12.8937   25.6347   25.7548 C   0  0  0  0  0  0  0  0  0  0  0  0
   12.5765   26.7136   26.7285 C   0  0  0  0  0  0  0  0  0  0  0  0
   11.4167   27.5838   26.4149 C   0  0  2  0  0  0  0  0  0  0  0  0
   12.9734   29.1963   27.1623 C   0  0  0  0  0  0  0  0  0  0  0  0
   13.3551   30.6515   27.2968 C   0  0  0  0  0  0  0  0  0  0  0  0
   10.9679   27.3069   24.9993 C   0  0  0  0  0  0  0  0  0  0  0  0
   10.5031   25.8426   25.0250 C   0  0  0  0  0  0  0  0  0  0  0  0
   11.3735   21.3528   24.4663 N   0  0  0  0  0  0  0  0  0  0  0  0
   11.6509   28.9961   26.6422 N   0  0  0  0  0  4  0  0  0  0  0  0
   12.3283   31.5599   26.8793 N   0  0  0  0  0  4  0  0  0  0  0  0
   10.7228   18.3594   24.8543 O   0  0  0  0  0  3  0  0  0  0  0  0
   12.8091   18.6741   23.4160 O   0  0  0  0  0  0  0  0  0  0  0  0
   15.2454   16.7036   22.3969 O   0  0  0  0  0  1  0  0  0  0  0  0
   16.1610   18.1532   23.8927 O   0  0  0  0  0  0  0  0  0  0  0  0
   10.5248   23.2086   23.4204 O   0  0  0  0  0  0  0  0  0  0  0  0
 10  1  1  0
  1 24  1  0
  1 25  1  0
  2  3  2  0
  8  2  1  0
 25  2  1  0
  3  4  1  0
  3  5  1  0
  4 26  1  0
  4 27  2  0
  6  5  2  0
  7  6  1  0
  8  7  2  0
  9  8  1  0
 10  9  1  0
 10 21  1  1
 12 11  1  0
 11 21  1  0
 11 28  2  0
 13 12  1  1
 14 13  1  0
 13 20  1  0
 15 14  1  0
 16 15  1  0
 16 19  1  0
 16 22  1  6
 17 18  1  0
 17 22  1  0
 18 23  1  0
 19 20  1  0
M  CHG  4  22   1  23   1  24   1  26  -1
M  END
$$$$
