
     RDKit          3D

 28 30  0  0  0  0  0  0  0  0999 V2000
   11.2764   19.3393   23.2767 B   0  0  0  0  0  0  0  0  0  0  0  0
   13.4268   19.6768   22.0745 C   0  0  0  0  0  0  0  0  0  0  0  0
   14.6794   19.2079   21.7226 C   0  0  0  0  0  0  0  0  0  0  0  0
   15.1317   17.9131   22.1847 C   0  0  0  0  0  0  0  0  0  0  0  0
   15.4907   19.9790   20.9316 C   0  0  0  0  0  0  0  0  0  0  0  0
   15.0852   21.2314   20.4688 C   0  0  0  0  0  0  0  0  0  0  0  0
   13.8349   21.6600   20.8407 C   0  0  0  0  0  0  0  0  0  0  0  0
   12.9841   20.8980   21.6457 C   0  0  0  0  0  0  0  0  0  0  0  0
   11.6797   21.4998   21.9524 C   0  0  0  0  0  0  0  0  0  0  0  0
   11.0042   20.9073   23.1606 C   0  0  2  0  0  0  0  0  0  0  0  0
   11.8540   22.9140   24.3003 C   0  0  0  0  0  0  0  0  0  0  0  0
   10.7750   23.8946   24.4911 C   0  0  0  0  0  0  0  0  0  0  0  0
   11.2060   24.9517   25.4849 C   0  0  2  0  0  0  0  0  0  0  0  0
   10.1147   25.4763   26.3411 C   0  0  0  0  0  0  0  0  0  0  0  0
    9.6130   26.8432   26.0366 C   0  0  0  0  0  0  0  0  0  0  0  0
   10.6072   27.8334   25.5550 C   0  0  2  0  0  0  0  0  0  0  0  0
   10.9906   29.1159   27.5019 C   0  0  0  0  0  0  0  0  0  0  0  0
   11.2393   30.4876   28.0832 C   0  0  0  0  0  0  0  0  0  0  0  0
   11.9930   27.2583   25.7311 C   0  0  0  0  0  0  0  0  0  0  0  0
   12.0185   26.0320   24.8057 C   0  0  0  0  0  0  0  0  0  0  0  0
   11.5697   21.5386   24.3286 N   0  0  0  0  0  0  0  0  0  0  0  0
   10.4846   29.1453   26.1591 N   0  0  0  0  0  4  0  0  0  0  0  0
   10.4853   30.7576   29.2717 N   0  0  0  0  0  4  0  0  0  0  0  0
   10.5258   18.6327   24.3272 O   0  0  0  0  0  3  0  0  0  0  0  0
   12.6201   18.8645   22.8847 O   0  0  0  0  0  0  0  0  0  0  0  0
   16.3886   17.4343   21.8623 O   0  0  0  0  0  1  0  0  0  0  0  0
   14.3708   17.2124   22.8901 O   0  0  0  0  0  0  0  0  0  0  0  0
   13.0214   23.3007   24.1135 O   0  0  0  0  0  0  0  0  0  0  0  0
 10  1  1  0
  1 24  1  0
  1 25  1  0
  2  3  2  0
  8  2  1  0
 25  2  1  0
  3  4  1  0
  3  5  1  0
  4 26  1  0
  4 27  2  0
  6  5  2  0
  7  6  1  0
  8  7  2  0
  9  8  1  0
 10  9  1  0
 10 21  1  1
 12 11  1  0
 11 21  1  0
 11 28  2  0
 13 12  1  6
 14 13  1  0
 13 20  1  0
 15 14  1  0
 16 15  1  0
 16 19  1  0
 16 22  1  1
 17 18  1  0
 17 22  1  0
 18 23  1  0
 19 20  1  0
M  CHG  4  22   1  23   1  24   1  26  -1
M  END
$$$$
