
     RDKit          3D

 51 52  0  0  0  0  0  0  0  0999 V2000
   -0.6795   -0.0830  -26.1724 N   0  0  0  0  0  4  0  0  0  0  0  0
   -1.5105    0.4927  -25.1609 C   0  0  2  0  0  0  0  0  0  0  0  0
   -2.6579   -0.3303  -24.7374 C   0  0  0  0  0  0  0  0  0  0  0  0
   -2.4374   -1.4556  -24.2187 O   0  0  0  0  0  0  0  0  0  0  0  0
   -2.0630    1.8157  -25.6891 C   0  0  0  0  0  0  0  0  0  0  0  0
   -3.0929    2.3877  -24.7614 C   0  0  0  0  0  0  0  0  0  0  0  0
   -4.2679    2.8854  -25.5619 C   0  0  0  0  0  0  0  0  0  0  0  0
   -3.9218    3.9599  -26.4552 N   0  0  0  0  0  0  0  0  0  0  0  0
   -4.9155    4.5132  -27.3491 C   0  0  0  0  0  0  0  0  0  0  0  0
   -5.5646    5.7315  -27.1090 N   0  0  0  0  0  0  0  0  0  0  0  0
   -5.1906    3.8263  -28.3986 N   0  0  0  0  0  0  0  0  0  0  0  0
   -4.0236    0.0260  -24.8576 N   0  0  0  0  0  0  0  0  0  0  0  0
   -5.0866   -0.9113  -24.5014 C   0  0  2  0  0  0  0  0  0  0  0  0
   -5.3147   -1.8624  -25.6414 C   0  0  0  0  0  0  0  0  0  0  0  0
   -5.2473   -1.4052  -26.7948 O   0  0  0  0  0  0  0  0  0  0  0  0
   -6.3408   -0.0305  -24.3538 C   0  0  0  0  0  0  0  0  0  0  0  0
   -6.7940   -0.1308  -22.9525 C   0  0  0  0  0  0  0  0  0  0  0  0
   -6.3126    0.7662  -22.0299 C   0  0  0  0  0  0  0  0  0  0  0  0
   -7.6789   -1.1070  -22.5302 C   0  0  0  0  0  0  0  0  0  0  0  0
   -6.6714    0.7398  -20.6991 C   0  0  0  0  0  0  0  0  0  0  0  0
   -8.0378   -1.1286  -21.1829 C   0  0  0  0  0  0  0  0  0  0  0  0
   -7.5404   -0.2115  -20.2641 C   0  0  0  0  0  0  0  0  0  0  0  0
   -7.9525   -0.2991  -18.9177 O   0  0  0  0  0  0  0  0  0  0  0  0
   -5.5958   -3.2209  -25.3891 N   0  0  0  0  0  0  0  0  0  0  0  0
   -5.8896   -4.1514  -26.4940 C   0  0  2  0  0  0  0  0  0  0  0  0
   -7.1385   -3.7249  -27.1397 C   0  0  0  0  0  0  0  0  0  0  0  0
   -7.7364   -2.6550  -26.7832 O   0  0  0  0  0  0  0  0  0  0  0  0
   -6.2193   -5.4864  -25.7678 C   0  0  0  0  0  0  0  0  0  0  0  0
   -7.7658   -4.4528  -28.1937 N   0  0  0  0  0  0  0  0  0  0  0  0
   -8.6608   -3.7869  -29.0744 C   0  0  2  0  0  0  0  0  0  0  0  0
   -9.3584   -4.6742  -30.0058 C   0  0  0  0  0  0  0  0  0  0  0  0
  -10.0632   -4.1923  -30.9749 O   0  0  0  0  0  0  0  0  0  0  0  0
   -7.8827   -2.7803  -29.9558 C   0  0  1  0  0  0  0  0  0  0  0  0
   -8.7629   -2.1286  -30.9652 C   0  0  0  0  0  0  0  0  0  0  0  0
   -7.3176   -1.7451  -29.0211 C   0  0  0  0  0  0  0  0  0  0  0  0
   -9.3228   -6.0788  -29.9389 N   0  0  0  0  0  0  0  0  0  0  0  0
  -10.3071   -6.9296  -30.5690 C   0  0  2  0  0  0  0  0  0  0  0  0
  -10.5295   -6.5254  -31.9565 C   0  0  0  0  0  0  0  0  0  0  0  0
  -11.0629   -5.3352  -32.0607 O   0  0  0  0  0  0  0  0  0  0  0  0
  -11.6265   -6.8706  -29.8158 C   0  0  1  0  0  0  0  0  0  0  0  0
  -12.6646   -7.8118  -30.3590 C   0  0  0  0  0  0  0  0  0  0  0  0
  -11.4336   -7.1412  -28.3522 C   0  0  0  0  0  0  0  0  0  0  0  0
  -10.2820   -7.1636  -33.1593 N   0  0  0  0  0  0  0  0  0  0  0  0
  -10.4484   -6.4998  -34.4834 C   0  0  2  0  0  0  0  0  0  0  0  0
  -11.8430   -6.6129  -34.9305 C   0  0  0  0  0  0  0  0  0  0  0  0
  -12.7393   -7.2230  -34.3405 O   0  0  0  0  0  0  0  0  0  0  0  0
   -9.4623   -7.1328  -35.3960 C   0  0  0  0  0  0  0  0  0  0  0  0
   -8.8743   -8.2861  -34.6461 C   0  0  0  0  0  0  0  0  0  0  0  0
   -9.8705   -8.4899  -33.4931 C   0  0  0  0  0  0  0  0  0  0  0  0
  -12.1613   -5.9573  -36.1475 O   0  0  0  0  0  0  0  0  0  0  0  0
   -4.8518    2.8472  -28.4885 H   0  0  0  0  0  0  0  0  0  0  0  0
  2  1  1  6
  2  3  1  0
  2  5  1  0
  3  4  2  0
  3 12  1  0
  5  6  1  0
  6  7  1  0
  7  8  1  0
  8  9  1  0
  9 10  1  0
  9 11  2  0
 12 13  1  0
 13 14  1  0
 13 16  1  6
 14 15  2  0
 14 24  1  0
 16 17  1  0
 17 18  2  0
 17 19  1  0
 18 20  1  0
 19 21  2  0
 20 22  2  0
 21 22  1  0
 22 23  1  0
 24 25  1  0
 25 26  1  0
 25 28  1  1
 26 27  2  0
 26 29  1  0
 30 29  1  6
 30 31  1  0
 30 33  1  0
 31 32  2  0
 31 36  1  0
 33 34  1  6
 33 35  1  0
 37 36  1  1
 37 38  1  0
 37 40  1  0
 38 39  2  0
 38 43  1  0
 40 41  1  6
 40 42  1  0
 43 44  1  0
 43 49  1  0
 44 45  1  6
 44 47  1  0
 45 46  2  0
 45 50  1  0
 47 48  1  0
 48 49  1  0
 11 51  1  0
M  CHG  1   1   1
M  END
$$$$
