
     RDKit          3D

 51 52  0  0  0  0  0  0  0  0999 V2000
   -1.5008    2.3203  -23.8050 N   0  0  0  0  0  4  0  0  0  0  0  0
   -2.7625    1.9637  -23.2341 C   0  0  2  0  0  0  0  0  0  0  0  0
   -3.9386    2.2127  -24.0874 C   0  0  0  0  0  0  0  0  0  0  0  0
   -4.2176    3.3987  -24.4031 O   0  0  0  0  0  0  0  0  0  0  0  0
   -2.9504    2.7644  -21.9464 C   0  0  0  0  0  0  0  0  0  0  0  0
   -2.9779    1.8684  -20.7443 C   0  0  0  0  0  0  0  0  0  0  0  0
   -4.2769    1.1062  -20.7165 C   0  0  0  0  0  0  0  0  0  0  0  0
   -4.9822    1.2474  -19.4696 N   0  0  0  0  0  0  0  0  0  0  0  0
   -6.3033    1.8360  -19.4421 C   0  0  0  0  0  0  0  0  0  0  0  0
   -7.4368    1.1473  -18.9905 N   0  0  0  0  0  0  0  0  0  0  0  0
   -6.4023    3.0458  -19.8612 N   0  0  0  0  0  0  0  0  0  0  0  0
   -4.8127    1.2251  -24.6043 N   0  0  0  0  0  0  0  0  0  0  0  0
   -5.3085    1.2939  -25.9772 C   0  0  2  0  0  0  0  0  0  0  0  0
   -6.2316    0.1366  -26.2319 C   0  0  0  0  0  0  0  0  0  0  0  0
   -6.0755   -0.5032  -27.2856 O   0  0  0  0  0  0  0  0  0  0  0  0
   -4.0528    1.1061  -26.8480 C   0  0  0  0  0  0  0  0  0  0  0  0
   -4.4957    0.9992  -28.2522 C   0  0  0  0  0  0  0  0  0  0  0  0
   -4.3673   -0.2043  -28.9023 C   0  0  0  0  0  0  0  0  0  0  0  0
   -5.0250    2.0742  -28.9439 C   0  0  0  0  0  0  0  0  0  0  0  0
   -4.7428   -0.3921  -30.2154 C   0  0  0  0  0  0  0  0  0  0  0  0
   -5.4027    1.8779  -30.2718 C   0  0  0  0  0  0  0  0  0  0  0  0
   -5.2657    0.6518  -30.9126 C   0  0  0  0  0  0  0  0  0  0  0  0
   -5.6720    0.5335  -32.2584 O   0  0  0  0  0  0  0  0  0  0  0  0
   -7.2339   -0.1931  -25.2967 N   0  0  0  0  0  0  0  0  0  0  0  0
   -8.6182   -0.4550  -25.7306 C   0  0  2  0  0  0  0  0  0  0  0  0
   -8.5784   -1.3653  -26.8831 C   0  0  0  0  0  0  0  0  0  0  0  0
   -8.9602   -2.5790  -26.7817 O   0  0  0  0  0  0  0  0  0  0  0  0
   -9.0911    0.9177  -26.2874 C   0  0  0  0  0  0  0  0  0  0  0  0
   -8.1241   -0.9741  -28.1773 N   0  0  0  0  0  0  0  0  0  0  0  0
   -8.3220   -1.8417  -29.2855 C   0  0  2  0  0  0  0  0  0  0  0  0
   -7.5559   -3.0867  -29.2182 C   0  0  0  0  0  0  0  0  0  0  0  0
   -6.7818   -3.3325  -28.2141 O   0  0  0  0  0  0  0  0  0  0  0  0
   -7.8725   -1.1416  -30.5907 C   0  0  1  0  0  0  0  0  0  0  0  0
   -8.0249   -2.0278  -31.7781 C   0  0  0  0  0  0  0  0  0  0  0  0
   -8.7441    0.0757  -30.7421 C   0  0  0  0  0  0  0  0  0  0  0  0
   -7.5947   -4.0945  -30.1988 N   0  0  0  0  0  0  0  0  0  0  0  0
   -7.6776   -5.5037  -29.8872 C   0  0  2  0  0  0  0  0  0  0  0  0
   -7.6421   -6.3074  -31.1081 C   0  0  0  0  0  0  0  0  0  0  0  0
   -8.6263   -6.0347  -31.9260 O   0  0  0  0  0  0  0  0  0  0  0  0
   -8.9584   -5.8093  -29.1272 C   0  0  1  0  0  0  0  0  0  0  0  0
   -9.3079   -7.2710  -29.1132 C   0  0  0  0  0  0  0  0  0  0  0  0
   -8.8903   -5.3054  -27.7151 C   0  0  0  0  0  0  0  0  0  0  0  0
   -6.7702   -7.2882  -31.5476 N   0  0  0  0  0  0  0  0  0  0  0  0
   -6.4764   -7.5314  -32.9885 C   0  0  2  0  0  0  0  0  0  0  0  0
   -7.4808   -8.4382  -33.5599 C   0  0  0  0  0  0  0  0  0  0  0  0
   -8.2968   -9.1040  -32.9160 O   0  0  0  0  0  0  0  0  0  0  0  0
   -5.0846   -8.0459  -33.0511 C   0  0  0  0  0  0  0  0  0  0  0  0
   -4.6580   -8.2797  -31.6363 C   0  0  0  0  0  0  0  0  0  0  0  0
   -5.9909   -8.2751  -30.8704 C   0  0  0  0  0  0  0  0  0  0  0  0
   -7.4930   -8.5410  -34.9746 O   0  0  0  0  0  0  0  0  0  0  0  0
   -5.5612    3.5535  -20.2019 H   0  0  0  0  0  0  0  0  0  0  0  0
  2  1  1  6
  2  3  1  0
  2  5  1  0
  3  4  2  0
  3 12  1  0
  5  6  1  0
  6  7  1  0
  7  8  1  0
  8  9  1  0
  9 10  1  0
  9 11  2  0
 12 13  1  0
 13 14  1  0
 13 16  1  6
 14 15  2  0
 14 24  1  0
 16 17  1  0
 17 18  2  0
 17 19  1  0
 18 20  1  0
 19 21  2  0
 20 22  2  0
 21 22  1  0
 22 23  1  0
 24 25  1  0
 25 26  1  0
 25 28  1  6
 26 27  2  0
 26 29  1  0
 30 29  1  1
 30 31  1  0
 30 33  1  0
 31 32  2  0
 31 36  1  0
 33 34  1  6
 33 35  1  0
 37 36  1  6
 37 38  1  0
 37 40  1  0
 38 39  2  0
 38 43  1  0
 40 41  1  1
 40 42  1  0
 43 44  1  0
 43 49  1  0
 44 45  1  1
 44 47  1  0
 45 46  2  0
 45 50  1  0
 47 48  1  0
 48 49  1  0
 11 51  1  0
M  CHG  1   1   1
M  END
$$$$
