
     RDKit          3D

 51 52  0  0  0  0  0  0  0  0999 V2000
   -8.5260   -9.8554  -37.7310 N   0  0  0  0  0  4  0  0  0  0  0  0
   -8.2799   -8.9450  -36.6559 C   0  0  2  0  0  0  0  0  0  0  0  0
   -9.3579   -8.8370  -35.6561 C   0  0  0  0  0  0  0  0  0  0  0  0
  -10.3358   -9.6255  -35.7323 O   0  0  0  0  0  0  0  0  0  0  0  0
   -8.0588   -7.5533  -37.2465 C   0  0  0  0  0  0  0  0  0  0  0  0
   -7.6656   -6.5663  -36.1884 C   0  0  0  0  0  0  0  0  0  0  0  0
   -6.2027   -6.2358  -36.3296 C   0  0  0  0  0  0  0  0  0  0  0  0
   -5.9727   -4.8705  -36.7234 N   0  0  0  0  0  0  0  0  0  0  0  0
   -4.9780   -4.0726  -36.0404 C   0  0  0  0  0  0  0  0  0  0  0  0
   -3.8495   -4.6256  -35.4207 N   0  0  0  0  0  0  0  0  0  0  0  0
   -5.1740   -2.8037  -36.0198 N   0  0  0  0  0  0  0  0  0  0  0  0
   -9.4075   -7.9095  -34.5865 N   0  0  0  0  0  0  0  0  0  0  0  0
   -9.7617   -8.3306  -33.2328 C   0  0  2  0  0  0  0  0  0  0  0  0
   -9.7541   -7.1364  -32.3217 C   0  0  0  0  0  0  0  0  0  0  0  0
   -8.6504   -6.6652  -31.9995 O   0  0  0  0  0  0  0  0  0  0  0  0
   -8.6133   -9.2643  -32.8089 C   0  0  0  0  0  0  0  0  0  0  0  0
   -8.8202   -9.6096  -31.3887 C   0  0  0  0  0  0  0  0  0  0  0  0
   -7.9495  -10.4811  -30.7804 C   0  0  0  0  0  0  0  0  0  0  0  0
   -9.8705   -9.0960  -30.6488 C   0  0  0  0  0  0  0  0  0  0  0  0
   -8.0731  -10.8688  -29.4632 C   0  0  0  0  0  0  0  0  0  0  0  0
   -9.9902   -9.4921  -29.3171 C   0  0  0  0  0  0  0  0  0  0  0  0
   -9.0983  -10.3748  -28.7187 C   0  0  0  0  0  0  0  0  0  0  0  0
   -9.2870  -10.7264  -27.3656 O   0  0  0  0  0  0  0  0  0  0  0  0
  -10.9673   -6.5871  -31.8586 N   0  0  0  0  0  0  0  0  0  0  0  0
  -10.9770   -5.3935  -30.9937 C   0  0  2  0  0  0  0  0  0  0  0  0
   -9.7339   -5.3781  -30.2108 C   0  0  0  0  0  0  0  0  0  0  0  0
   -9.2931   -6.4352  -29.6473 O   0  0  0  0  0  0  0  0  0  0  0  0
  -12.1170   -5.6889  -29.9782 C   0  0  0  0  0  0  0  0  0  0  0  0
   -8.9374   -4.2096  -30.0251 N   0  0  0  0  0  0  0  0  0  0  0  0
   -7.8795   -4.2214  -29.0761 C   0  0  2  0  0  0  0  0  0  0  0  0
   -8.0043   -3.2113  -28.0247 C   0  0  0  0  0  0  0  0  0  0  0  0
   -8.1748   -1.9660  -28.3218 O   0  0  0  0  0  0  0  0  0  0  0  0
   -6.5336   -3.9291  -29.7822 C   0  0  1  0  0  0  0  0  0  0  0  0
   -5.4005   -3.8702  -28.8173 C   0  0  0  0  0  0  0  0  0  0  0  0
   -6.3161   -5.0493  -30.7632 C   0  0  0  0  0  0  0  0  0  0  0  0
   -7.9582   -3.4920  -26.6471 N   0  0  0  0  0  0  0  0  0  0  0  0
   -8.1360   -2.4857  -25.6246 C   0  0  2  0  0  0  0  0  0  0  0  0
   -6.8530   -1.8893  -25.2556 C   0  0  0  0  0  0  0  0  0  0  0  0
   -5.8748   -2.7579  -25.2354 O   0  0  0  0  0  0  0  0  0  0  0  0
   -8.7788   -3.0890  -24.3858 C   0  0  1  0  0  0  0  0  0  0  0  0
   -8.8374   -2.1389  -23.2229 C   0  0  0  0  0  0  0  0  0  0  0  0
  -10.1610   -3.5958  -24.6783 C   0  0  0  0  0  0  0  0  0  0  0  0
   -6.4925   -0.5935  -24.9294 N   0  0  0  0  0  0  0  0  0  0  0  0
   -5.0826   -0.1104  -24.9496 C   0  0  2  0  0  0  0  0  0  0  0  0
   -4.4304   -0.4101  -23.6680 C   0  0  0  0  0  0  0  0  0  0  0  0
   -3.2656   -0.1289  -23.3715 O   0  0  0  0  0  0  0  0  0  0  0  0
   -5.1403    1.3363  -25.2806 C   0  0  0  0  0  0  0  0  0  0  0  0
   -6.5870    1.7167  -25.2551 C   0  0  0  0  0  0  0  0  0  0  0  0
   -7.2366    0.5467  -24.4984 C   0  0  0  0  0  0  0  0  0  0  0  0
   -5.2280   -1.0816  -22.7061 O   0  0  0  0  0  0  0  0  0  0  0  0
   -5.6274   -2.3297  -36.8267 H   0  0  0  0  0  0  0  0  0  0  0  0
  2  1  1  6
  2  3  1  0
  2  5  1  0
  3  4  2  0
  3 12  1  0
  5  6  1  0
  6  7  1  0
  7  8  1  0
  8  9  1  0
  9 10  1  0
  9 11  2  0
 12 13  1  0
 13 14  1  0
 13 16  1  1
 14 15  2  0
 14 24  1  0
 16 17  1  0
 17 18  2  0
 17 19  1  0
 18 20  1  0
 19 21  2  0
 20 22  2  0
 21 22  1  0
 22 23  1  0
 24 25  1  0
 25 26  1  0
 25 28  1  1
 26 27  2  0
 26 29  1  0
 30 29  1  6
 30 31  1  0
 30 33  1  0
 31 32  2  0
 31 36  1  0
 33 34  1  1
 33 35  1  0
 37 36  1  6
 37 38  1  0
 37 40  1  0
 38 39  2  0
 38 43  1  0
 40 41  1  1
 40 42  1  0
 43 44  1  0
 43 49  1  0
 44 45  1  1
 44 47  1  0
 45 46  2  0
 45 50  1  0
 47 48  1  0
 48 49  1  0
 11 51  1  0
M  CHG  1   1   1
M  END
$$$$
