
     RDKit          3D

 51 52  0  0  0  0  0  0  0  0999 V2000
    0.2883    3.4350  -26.5899 N   0  0  0  0  0  4  0  0  0  0  0  0
   -0.3131    2.2617  -26.0360 C   0  0  2  0  0  0  0  0  0  0  0  0
   -1.7116    2.0172  -26.4332 C   0  0  0  0  0  0  0  0  0  0  0  0
   -2.6339    2.5420  -25.7565 O   0  0  0  0  0  0  0  0  0  0  0  0
   -0.2810    2.3792  -24.5129 C   0  0  0  0  0  0  0  0  0  0  0  0
   -0.2728    3.8133  -24.0750 C   0  0  0  0  0  0  0  0  0  0  0  0
   -1.3788    4.0395  -23.0776 C   0  0  0  0  0  0  0  0  0  0  0  0
   -0.9355    3.9195  -21.7134 N   0  0  0  0  0  0  0  0  0  0  0  0
    0.2564    4.6095  -21.2710 C   0  0  0  0  0  0  0  0  0  0  0  0
    0.7468    4.5234  -19.9613 N   0  0  0  0  0  0  0  0  0  0  0  0
    0.8640    5.3262  -22.1463 N   0  0  0  0  0  0  0  0  0  0  0  0
   -2.1366    1.2292  -27.5309 N   0  0  0  0  0  0  0  0  0  0  0  0
   -2.3274   -0.2137  -27.4006 C   0  0  2  0  0  0  0  0  0  0  0  0
   -3.7714   -0.5002  -27.1023 C   0  0  0  0  0  0  0  0  0  0  0  0
   -4.2850   -1.4936  -27.6439 O   0  0  0  0  0  0  0  0  0  0  0  0
   -1.4965   -0.6000  -26.1633 C   0  0  0  0  0  0  0  0  0  0  0  0
   -0.7344   -1.8185  -26.5004 C   0  0  0  0  0  0  0  0  0  0  0  0
   -0.6658   -2.8378  -25.5819 C   0  0  0  0  0  0  0  0  0  0  0  0
   -0.0734   -1.9664  -27.7069 C   0  0  0  0  0  0  0  0  0  0  0  0
    0.0324   -4.0051  -25.8065 C   0  0  0  0  0  0  0  0  0  0  0  0
    0.6312   -3.1493  -27.9280 C   0  0  0  0  0  0  0  0  0  0  0  0
    0.6885   -4.1702  -26.9861 C   0  0  0  0  0  0  0  0  0  0  0  0
    1.4223   -5.3374  -27.2854 O   0  0  0  0  0  0  0  0  0  0  0  0
   -4.4999    0.3421  -26.2375 N   0  0  0  0  0  0  0  0  0  0  0  0
   -5.9730    0.3778  -26.2782 C   0  0  2  0  0  0  0  0  0  0  0  0
   -6.4562   -0.9341  -26.7299 C   0  0  0  0  0  0  0  0  0  0  0  0
   -5.7843   -1.6391  -27.5550 O   0  0  0  0  0  0  0  0  0  0  0  0
   -6.2814    1.3680  -27.4369 C   0  0  0  0  0  0  0  0  0  0  0  0
   -7.6836   -1.5126  -26.2904 N   0  0  0  0  0  0  0  0  0  0  0  0
   -8.0744   -2.7898  -26.7762 C   0  0  2  0  0  0  0  0  0  0  0  0
   -8.4655   -2.8024  -28.1863 C   0  0  0  0  0  0  0  0  0  0  0  0
   -9.2346   -1.8828  -28.6668 O   0  0  0  0  0  0  0  0  0  0  0  0
   -9.3091   -3.2972  -25.9930 C   0  0  1  0  0  0  0  0  0  0  0  0
   -9.8361   -4.5734  -26.5515 C   0  0  0  0  0  0  0  0  0  0  0  0
   -8.8559   -3.5054  -24.5732 C   0  0  0  0  0  0  0  0  0  0  0  0
   -8.0516   -3.7750  -29.1144 N   0  0  0  0  0  0  0  0  0  0  0  0
   -8.4753   -3.7859  -30.4965 C   0  0  2  0  0  0  0  0  0  0  0  0
   -9.0926   -5.0663  -30.8393 C   0  0  0  0  0  0  0  0  0  0  0  0
   -8.4284   -6.0927  -30.3734 O   0  0  0  0  0  0  0  0  0  0  0  0
   -7.2932   -3.5401  -31.4206 C   0  0  1  0  0  0  0  0  0  0  0  0
   -7.6510   -3.6173  -32.8782 C   0  0  0  0  0  0  0  0  0  0  0  0
   -6.6468   -2.2146  -31.1414 C   0  0  0  0  0  0  0  0  0  0  0  0
  -10.2335   -5.3832  -31.5557 N   0  0  0  0  0  0  0  0  0  0  0  0
  -10.7543   -6.7738  -31.6853 C   0  0  2  0  0  0  0  0  0  0  0  0
  -10.0932   -7.4555  -32.8060 C   0  0  0  0  0  0  0  0  0  0  0  0
   -9.3431   -6.9230  -33.6290 O   0  0  0  0  0  0  0  0  0  0  0  0
  -12.2282   -6.6575  -31.8263 C   0  0  0  0  0  0  0  0  0  0  0  0
  -12.5233   -5.1982  -31.9735 C   0  0  0  0  0  0  0  0  0  0  0  0
  -11.1499   -4.6037  -32.3253 C   0  0  0  0  0  0  0  0  0  0  0  0
  -10.3565   -8.8436  -32.9323 O   0  0  0  0  0  0  0  0  0  0  0  0
    1.8035    5.7214  -21.9402 H   0  0  0  0  0  0  0  0  0  0  0  0
  2  1  1  6
  2  3  1  0
  2  5  1  0
  3  4  2  0
  3 12  1  0
  5  6  1  0
  6  7  1  0
  7  8  1  0
  8  9  1  0
  9 10  1  0
  9 11  2  0
 12 13  1  0
 13 14  1  0
 13 16  1  1
 14 15  2  0
 14 24  1  0
 16 17  1  0
 17 18  2  0
 17 19  1  0
 18 20  1  0
 19 21  2  0
 20 22  2  0
 21 22  1  0
 22 23  1  0
 24 25  1  0
 25 26  1  0
 25 28  1  6
 26 27  2  0
 26 29  1  0
 30 29  1  1
 30 31  1  0
 30 33  1  0
 31 32  2  0
 31 36  1  0
 33 34  1  6
 33 35  1  0
 37 36  1  1
 37 38  1  0
 37 40  1  0
 38 39  2  0
 38 43  1  0
 40 41  1  6
 40 42  1  0
 43 44  1  0
 43 49  1  0
 44 45  1  6
 44 47  1  0
 45 46  2  0
 45 50  1  0
 47 48  1  0
 48 49  1  0
 11 51  1  0
M  CHG  1   1   1
M  END
$$$$
