
     RDKit          3D

 51 52  0  0  0  0  0  0  0  0999 V2000
    0.7449    2.0098  -25.9841 N   0  0  0  0  0  4  0  0  0  0  0  0
   -0.6768    2.1619  -26.0142 C   0  0  2  0  0  0  0  0  0  0  0  0
   -1.3440    2.1557  -24.6996 C   0  0  0  0  0  0  0  0  0  0  0  0
   -1.4039    3.2294  -24.0458 O   0  0  0  0  0  0  0  0  0  0  0  0
   -1.2650    1.0147  -26.8343 C   0  0  0  0  0  0  0  0  0  0  0  0
   -0.7401    1.0212  -28.2389 C   0  0  0  0  0  0  0  0  0  0  0  0
   -1.4089   -0.0728  -29.0294 C   0  0  0  0  0  0  0  0  0  0  0  0
   -1.1207   -0.0022  -30.4379 N   0  0  0  0  0  0  0  0  0  0  0  0
   -2.1949    0.1488  -31.3949 C   0  0  0  0  0  0  0  0  0  0  0  0
   -2.0052    0.0408  -32.7790 N   0  0  0  0  0  0  0  0  0  0  0  0
   -3.3608    0.3951  -30.9163 N   0  0  0  0  0  0  0  0  0  0  0  0
   -1.9427    1.0321  -24.0785 N   0  0  0  0  0  0  0  0  0  0  0  0
   -3.3916    0.8423  -24.0877 C   0  0  2  0  0  0  0  0  0  0  0  0
   -3.7645   -0.0919  -25.2032 C   0  0  0  0  0  0  0  0  0  0  0  0
   -3.6588    0.3301  -26.3671 O   0  0  0  0  0  0  0  0  0  0  0  0
   -3.9585    2.2349  -24.4190 C   0  0  0  0  0  0  0  0  0  0  0  0
   -4.5571    2.7783  -23.1839 C   0  0  0  0  0  0  0  0  0  0  0  0
   -4.1997    2.2342  -21.9740 C   0  0  0  0  0  0  0  0  0  0  0  0
   -5.4782    3.8106  -23.2014 C   0  0  0  0  0  0  0  0  0  0  0  0
   -4.7169    2.6701  -20.7727 C   0  0  0  0  0  0  0  0  0  0  0  0
   -5.9978    4.2469  -21.9831 C   0  0  0  0  0  0  0  0  0  0  0  0
   -5.6232    3.6839  -20.7684 C   0  0  0  0  0  0  0  0  0  0  0  0
   -6.1939    4.1818  -19.5781 O   0  0  0  0  0  0  0  0  0  0  0  0
   -4.2179   -1.3960  -24.9173 N   0  0  0  0  0  0  0  0  0  0  0  0
   -4.5983   -2.3202  -26.0009 C   0  0  2  0  0  0  0  0  0  0  0  0
   -5.9559   -1.9784  -26.4465 C   0  0  0  0  0  0  0  0  0  0  0  0
   -6.9836   -2.3653  -25.7957 O   0  0  0  0  0  0  0  0  0  0  0  0
   -4.7185   -3.6940  -25.2824 C   0  0  0  0  0  0  0  0  0  0  0  0
   -6.2277   -1.2025  -27.6121 N   0  0  0  0  0  0  0  0  0  0  0  0
   -7.3222   -1.5491  -28.4499 C   0  0  2  0  0  0  0  0  0  0  0  0
   -7.1888   -2.8509  -29.1048 C   0  0  0  0  0  0  0  0  0  0  0  0
   -6.1270   -3.5675  -28.9403 O   0  0  0  0  0  0  0  0  0  0  0  0
   -7.4596   -0.5153  -29.5935 C   0  0  1  0  0  0  0  0  0  0  0  0
   -8.6017   -0.8322  -30.4954 C   0  0  0  0  0  0  0  0  0  0  0  0
   -7.6791    0.8201  -28.9353 C   0  0  0  0  0  0  0  0  0  0  0  0
   -8.1683   -3.4231  -29.9366 N   0  0  0  0  0  0  0  0  0  0  0  0
   -8.6862   -4.7600  -29.7511 C   0  0  2  0  0  0  0  0  0  0  0  0
   -9.3099   -5.2494  -30.9796 C   0  0  0  0  0  0  0  0  0  0  0  0
  -10.1772   -4.4076  -31.4806 O   0  0  0  0  0  0  0  0  0  0  0  0
   -9.7109   -4.7860  -28.6282 C   0  0  1  0  0  0  0  0  0  0  0  0
  -10.5001   -6.0637  -28.5720 C   0  0  0  0  0  0  0  0  0  0  0  0
   -9.0668   -4.5455  -27.2940 C   0  0  0  0  0  0  0  0  0  0  0  0
   -9.1513   -6.4226  -31.6963 N   0  0  0  0  0  0  0  0  0  0  0  0
   -9.4609   -6.5379  -33.1497 C   0  0  2  0  0  0  0  0  0  0  0  0
  -10.8858   -6.8416  -33.3374 C   0  0  0  0  0  0  0  0  0  0  0  0
  -11.6724   -7.1761  -32.4468 O   0  0  0  0  0  0  0  0  0  0  0  0
   -8.5410   -7.5694  -33.6934 C   0  0  0  0  0  0  0  0  0  0  0  0
   -7.8472   -8.1776  -32.5156 C   0  0  0  0  0  0  0  0  0  0  0  0
   -8.7262   -7.7370  -31.3339 C   0  0  0  0  0  0  0  0  0  0  0  0
  -11.3751   -6.7354  -34.6646 O   0  0  0  0  0  0  0  0  0  0  0  0
   -3.5290    1.2596  -30.3636 H   0  0  0  0  0  0  0  0  0  0  0  0
  2  1  1  1
  2  3  1  0
  2  5  1  0
  3  4  2  0
  3 12  1  0
  5  6  1  0
  6  7  1  0
  7  8  1  0
  8  9  1  0
  9 10  1  0
  9 11  2  0
 12 13  1  0
 13 14  1  0
 13 16  1  6
 14 15  2  0
 14 24  1  0
 16 17  1  0
 17 18  2  0
 17 19  1  0
 18 20  1  0
 19 21  2  0
 20 22  2  0
 21 22  1  0
 22 23  1  0
 24 25  1  0
 25 26  1  0
 25 28  1  1
 26 27  2  0
 26 29  1  0
 30 29  1  6
 30 31  1  0
 30 33  1  0
 31 32  2  0
 31 36  1  0
 33 34  1  6
 33 35  1  0
 37 36  1  6
 37 38  1  0
 37 40  1  0
 38 39  2  0
 38 43  1  0
 40 41  1  1
 40 42  1  0
 43 44  1  0
 43 49  1  0
 44 45  1  1
 44 47  1  0
 45 46  2  0
 45 50  1  0
 47 48  1  0
 48 49  1  0
 11 51  1  0
M  CHG  1   1   1
M  END
$$$$
