
     RDKit          3D

 51 52  0  0  0  0  0  0  0  0999 V2000
    0.7101    2.0268  -25.1207 N   0  0  0  0  0  4  0  0  0  0  0  0
    0.6252    3.4002  -25.5099 C   0  0  2  0  0  0  0  0  0  0  0  0
   -0.7374    3.9597  -25.5713 C   0  0  0  0  0  0  0  0  0  0  0  0
   -0.9715    4.8967  -26.3783 O   0  0  0  0  0  0  0  0  0  0  0  0
    1.2451    3.5447  -26.8990 C   0  0  0  0  0  0  0  0  0  0  0  0
    0.6115    2.6052  -27.8810 C   0  0  0  0  0  0  0  0  0  0  0  0
    1.3118    2.7212  -29.2096 C   0  0  0  0  0  0  0  0  0  0  0  0
    2.6405    2.1676  -29.1924 N   0  0  0  0  0  0  0  0  0  0  0  0
    3.3996    2.0562  -30.4187 C   0  0  0  0  0  0  0  0  0  0  0  0
    3.9623    0.8519  -30.8617 N   0  0  0  0  0  0  0  0  0  0  0  0
    3.5454    3.1322  -31.1042 N   0  0  0  0  0  0  0  0  0  0  0  0
   -1.8431    3.5382  -24.7926 N   0  0  0  0  0  0  0  0  0  0  0  0
   -2.1600    2.1211  -24.6290 C   0  0  2  0  0  0  0  0  0  0  0  0
   -3.5299    1.8500  -25.1821 C   0  0  0  0  0  0  0  0  0  0  0  0
   -4.2892    2.8207  -25.3409 O   0  0  0  0  0  0  0  0  0  0  0  0
   -2.2087    1.9128  -23.1043 C   0  0  0  0  0  0  0  0  0  0  0  0
   -3.4238    2.5833  -22.6011 C   0  0  0  0  0  0  0  0  0  0  0  0
   -4.5504    1.8333  -22.3650 C   0  0  0  0  0  0  0  0  0  0  0  0
   -3.4735    3.9466  -22.3702 C   0  0  0  0  0  0  0  0  0  0  0  0
   -5.7316    2.3766  -21.9068 C   0  0  0  0  0  0  0  0  0  0  0  0
   -4.6712    4.4902  -21.9070 C   0  0  0  0  0  0  0  0  0  0  0  0
   -5.8010    3.7145  -21.6733 C   0  0  0  0  0  0  0  0  0  0  0  0
   -6.9754    4.3394  -21.2039 O   0  0  0  0  0  0  0  0  0  0  0  0
   -3.9206    0.5333  -25.5008 N   0  0  0  0  0  0  0  0  0  0  0  0
   -4.4172    0.1954  -26.8470 C   0  0  2  0  0  0  0  0  0  0  0  0
   -5.6691   -0.5599  -26.7032 C   0  0  0  0  0  0  0  0  0  0  0  0
   -5.7787   -1.5043  -25.8515 O   0  0  0  0  0  0  0  0  0  0  0  0
   -3.3657   -0.8191  -27.3791 C   0  0  0  0  0  0  0  0  0  0  0  0
   -6.8355   -0.3024  -27.4828 N   0  0  0  0  0  0  0  0  0  0  0  0
   -7.9325   -1.2043  -27.4287 C   0  0  2  0  0  0  0  0  0  0  0  0
   -7.6682   -2.5090  -28.0364 C   0  0  0  0  0  0  0  0  0  0  0  0
   -6.7204   -2.6549  -28.9016 O   0  0  0  0  0  0  0  0  0  0  0  0
   -9.1375   -0.6168  -28.2021 C   0  0  1  0  0  0  0  0  0  0  0  0
  -10.2988   -1.5493  -28.2143 C   0  0  0  0  0  0  0  0  0  0  0  0
   -9.5111    0.6609  -27.5002 C   0  0  0  0  0  0  0  0  0  0  0  0
   -8.3889   -3.6806  -27.7420 N   0  0  0  0  0  0  0  0  0  0  0  0
   -8.0951   -4.9650  -28.3368 C   0  0  2  0  0  0  0  0  0  0  0  0
   -9.1246   -5.3344  -29.3071 C   0  0  0  0  0  0  0  0  0  0  0  0
  -10.3086   -4.8746  -28.9933 O   0  0  0  0  0  0  0  0  0  0  0  0
   -8.0091   -6.0427  -27.2679 C   0  0  1  0  0  0  0  0  0  0  0  0
   -7.8355   -7.4258  -27.8296 C   0  0  0  0  0  0  0  0  0  0  0  0
   -6.8998   -5.7626  -26.2964 C   0  0  0  0  0  0  0  0  0  0  0  0
   -9.0737   -6.0704  -30.4781 N   0  0  0  0  0  0  0  0  0  0  0  0
   -7.8483   -6.1793  -31.3195 C   0  0  2  0  0  0  0  0  0  0  0  0
   -7.7782   -5.0479  -32.2538 C   0  0  0  0  0  0  0  0  0  0  0  0
   -8.6099   -4.1407  -32.3471 O   0  0  0  0  0  0  0  0  0  0  0  0
   -7.9084   -7.5099  -31.9767 C   0  0  0  0  0  0  0  0  0  0  0  0
   -9.2584   -8.0735  -31.6636 C   0  0  0  0  0  0  0  0  0  0  0  0
  -10.0440   -6.8403  -31.1891 C   0  0  0  0  0  0  0  0  0  0  0  0
   -6.6492   -5.0190  -33.1122 O   0  0  0  0  0  0  0  0  0  0  0  0
    3.0381    3.2540  -32.0037 H   0  0  0  0  0  0  0  0  0  0  0  0
  2  1  1  6
  2  3  1  0
  2  5  1  0
  3  4  2  0
  3 12  1  0
  5  6  1  0
  6  7  1  0
  7  8  1  0
  8  9  1  0
  9 10  1  0
  9 11  2  0
 12 13  1  0
 13 14  1  0
 13 16  1  1
 14 15  2  0
 14 24  1  0
 16 17  1  0
 17 18  2  0
 17 19  1  0
 18 20  1  0
 19 21  2  0
 20 22  2  0
 21 22  1  0
 22 23  1  0
 24 25  1  0
 25 26  1  0
 25 28  1  1
 26 27  2  0
 26 29  1  0
 30 29  1  6
 30 31  1  0
 30 33  1  0
 31 32  2  0
 31 36  1  0
 33 34  1  1
 33 35  1  0
 37 36  1  1
 37 38  1  0
 37 40  1  0
 38 39  2  0
 38 43  1  0
 40 41  1  6
 40 42  1  0
 43 44  1  0
 43 49  1  0
 44 45  1  6
 44 47  1  0
 45 46  2  0
 45 50  1  0
 47 48  1  0
 48 49  1  0
 11 51  1  0
M  CHG  1   1   1
M  END
$$$$
