
     RDKit          3D

 51 52  0  0  0  0  0  0  0  0999 V2000
   -2.5101    0.5513  -26.5537 N   0  0  0  0  0  4  0  0  0  0  0  0
   -2.5929   -0.2608  -25.3794 C   0  0  2  0  0  0  0  0  0  0  0  0
   -3.9016   -0.8946  -25.1367 C   0  0  0  0  0  0  0  0  0  0  0  0
   -4.4916   -0.6680  -24.0483 O   0  0  0  0  0  0  0  0  0  0  0  0
   -2.2731    0.6134  -24.1678 C   0  0  0  0  0  0  0  0  0  0  0  0
   -2.2653   -0.1891  -22.9011 C   0  0  0  0  0  0  0  0  0  0  0  0
   -2.9242    0.6024  -21.8018 C   0  0  0  0  0  0  0  0  0  0  0  0
   -2.2111    1.8097  -21.4765 N   0  0  0  0  0  0  0  0  0  0  0  0
   -2.8600    3.0963  -21.6038 C   0  0  0  0  0  0  0  0  0  0  0  0
   -4.1895    3.2429  -22.0211 N   0  0  0  0  0  0  0  0  0  0  0  0
   -2.1523    4.1281  -21.3150 N   0  0  0  0  0  0  0  0  0  0  0  0
   -4.5837   -1.7576  -26.0292 N   0  0  0  0  0  0  0  0  0  0  0  0
   -6.0189   -2.0012  -25.9012 C   0  0  2  0  0  0  0  0  0  0  0  0
   -6.4582   -2.9617  -26.9692 C   0  0  0  0  0  0  0  0  0  0  0  0
   -6.1430   -2.7014  -28.1426 O   0  0  0  0  0  0  0  0  0  0  0  0
   -6.6669   -0.6347  -26.1894 C   0  0  0  0  0  0  0  0  0  0  0  0
   -7.5586   -0.3161  -25.0570 C   0  0  0  0  0  0  0  0  0  0  0  0
   -8.2334   -1.3365  -24.4317 C   0  0  0  0  0  0  0  0  0  0  0  0
   -7.7505    0.9789  -24.6093 C   0  0  0  0  0  0  0  0  0  0  0  0
   -9.0949   -1.1304  -23.3754 C   0  0  0  0  0  0  0  0  0  0  0  0
   -8.6233    1.1809  -23.5406 C   0  0  0  0  0  0  0  0  0  0  0  0
   -9.2968    0.1350  -22.9201 C   0  0  0  0  0  0  0  0  0  0  0  0
  -10.1630    0.4213  -21.8439 O   0  0  0  0  0  0  0  0  0  0  0  0
   -7.2027   -4.1102  -26.6306 N   0  0  0  0  0  0  0  0  0  0  0  0
   -8.6159   -4.0044  -26.2250 C   0  0  2  0  0  0  0  0  0  0  0  0
   -9.4560   -4.2212  -27.4106 C   0  0  0  0  0  0  0  0  0  0  0  0
  -10.3305   -3.3630  -27.7685 O   0  0  0  0  0  0  0  0  0  0  0  0
   -8.7776   -2.5023  -25.8566 C   0  0  0  0  0  0  0  0  0  0  0  0
   -9.3617   -5.3787  -28.2387 N   0  0  0  0  0  0  0  0  0  0  0  0
   -9.5672   -5.2611  -29.6401 C   0  0  2  0  0  0  0  0  0  0  0  0
   -9.8829   -6.5237  -30.3091 C   0  0  0  0  0  0  0  0  0  0  0  0
   -9.0135   -7.4770  -30.3652 O   0  0  0  0  0  0  0  0  0  0  0  0
   -8.2800   -4.7355  -30.3201 C   0  0  1  0  0  0  0  0  0  0  0  0
   -8.4116   -4.6939  -31.8031 C   0  0  0  0  0  0  0  0  0  0  0  0
   -8.0526   -3.3476  -29.7846 C   0  0  0  0  0  0  0  0  0  0  0  0
  -11.1160   -6.8078  -30.9235 N   0  0  0  0  0  0  0  0  0  0  0  0
  -11.4707   -8.1159  -31.4262 C   0  0  2  0  0  0  0  0  0  0  0  0
  -10.8487   -8.3574  -32.7273 C   0  0  0  0  0  0  0  0  0  0  0  0
  -10.7332   -7.2702  -33.4461 O   0  0  0  0  0  0  0  0  0  0  0  0
  -12.9793   -8.2453  -31.5643 C   0  0  1  0  0  0  0  0  0  0  0  0
  -13.4151   -9.5757  -32.1108 C   0  0  0  0  0  0  0  0  0  0  0  0
  -13.6715   -7.9995  -30.2554 C   0  0  0  0  0  0  0  0  0  0  0  0
  -10.3680   -9.5089  -33.3258 N   0  0  0  0  0  0  0  0  0  0  0  0
   -9.5812   -9.5019  -34.5917 C   0  0  2  0  0  0  0  0  0  0  0  0
  -10.4882   -9.5099  -35.7471 C   0  0  0  0  0  0  0  0  0  0  0  0
  -11.6741   -9.8518  -35.7272 O   0  0  0  0  0  0  0  0  0  0  0  0
   -8.6692  -10.6722  -34.5244 C   0  0  0  0  0  0  0  0  0  0  0  0
   -9.0743  -11.4527  -33.3140 C   0  0  0  0  0  0  0  0  0  0  0  0
  -10.4715  -10.8950  -32.9974 C   0  0  0  0  0  0  0  0  0  0  0  0
   -9.9292   -9.0851  -36.9797 O   0  0  0  0  0  0  0  0  0  0  0  0
   -1.7984    4.7496  -22.0699 H   0  0  0  0  0  0  0  0  0  0  0  0
  2  1  1  6
  2  3  1  0
  2  5  1  0
  3  4  2  0
  3 12  1  0
  5  6  1  0
  6  7  1  0
  7  8  1  0
  8  9  1  0
  9 10  1  0
  9 11  2  0
 12 13  1  0
 13 14  1  0
 13 16  1  6
 14 15  2  0
 14 24  1  0
 16 17  1  0
 17 18  2  0
 17 19  1  0
 18 20  1  0
 19 21  2  0
 20 22  2  0
 21 22  1  0
 22 23  1  0
 24 25  1  0
 25 26  1  0
 25 28  1  6
 26 27  2  0
 26 29  1  0
 30 29  1  1
 30 31  1  0
 30 33  1  0
 31 32  2  0
 31 36  1  0
 33 34  1  6
 33 35  1  0
 37 36  1  6
 37 38  1  0
 37 40  1  0
 38 39  2  0
 38 43  1  0
 40 41  1  1
 40 42  1  0
 43 44  1  0
 43 49  1  0
 44 45  1  6
 44 47  1  0
 45 46  2  0
 45 50  1  0
 47 48  1  0
 48 49  1  0
 11 51  1  0
M  CHG  1   1   1
M  END
$$$$
