
     RDKit          3D

 51 52  0  0  0  0  0  0  0  0999 V2000
   -1.3320    3.7140  -28.0068 N   0  0  0  0  0  4  0  0  0  0  0  0
   -1.8348    3.9188  -26.6838 C   0  0  2  0  0  0  0  0  0  0  0  0
   -3.0872    3.2102  -26.3637 C   0  0  0  0  0  0  0  0  0  0  0  0
   -4.1724    3.6677  -26.8078 O   0  0  0  0  0  0  0  0  0  0  0  0
   -2.0899    5.4133  -26.4933 C   0  0  0  0  0  0  0  0  0  0  0  0
   -0.9295    6.0850  -25.8218 C   0  0  0  0  0  0  0  0  0  0  0  0
   -1.2723    6.3556  -24.3802 C   0  0  0  0  0  0  0  0  0  0  0  0
   -0.2083    7.0102  -23.6651 N   0  0  0  0  0  0  0  0  0  0  0  0
   -0.3926    8.3491  -23.1494 C   0  0  0  0  0  0  0  0  0  0  0  0
   -1.5802    9.0742  -23.3144 N   0  0  0  0  0  0  0  0  0  0  0  0
    0.6009    8.8644  -22.5197 N   0  0  0  0  0  0  0  0  0  0  0  0
   -3.1982    2.0321  -25.5850 N   0  0  0  0  0  0  0  0  0  0  0  0
   -4.4946    1.4045  -25.3387 C   0  0  2  0  0  0  0  0  0  0  0  0
   -5.1584    1.1009  -26.6515 C   0  0  0  0  0  0  0  0  0  0  0  0
   -5.0187    1.9245  -27.5714 O   0  0  0  0  0  0  0  0  0  0  0  0
   -5.3180    2.4926  -24.6256 C   0  0  0  0  0  0  0  0  0  0  0  0
   -4.8283    2.5835  -23.2359 C   0  0  0  0  0  0  0  0  0  0  0  0
   -4.3350    1.4550  -22.6273 C   0  0  0  0  0  0  0  0  0  0  0  0
   -4.8605    3.7653  -22.5171 C   0  0  0  0  0  0  0  0  0  0  0  0
   -3.8684    1.4445  -21.3301 C   0  0  0  0  0  0  0  0  0  0  0  0
   -4.3874    3.7482  -21.2054 C   0  0  0  0  0  0  0  0  0  0  0  0
   -3.8910    2.5959  -20.6068 C   0  0  0  0  0  0  0  0  0  0  0  0
   -3.4299    2.6604  -19.2750 O   0  0  0  0  0  0  0  0  0  0  0  0
   -5.9104   -0.0810  -26.8119 N   0  0  0  0  0  0  0  0  0  0  0  0
   -6.5929   -0.3777  -28.0843 C   0  0  2  0  0  0  0  0  0  0  0  0
   -7.3011   -1.6572  -27.9432 C   0  0  0  0  0  0  0  0  0  0  0  0
   -7.7743   -2.0316  -26.8183 O   0  0  0  0  0  0  0  0  0  0  0  0
   -5.4218   -0.6452  -29.0719 C   0  0  0  0  0  0  0  0  0  0  0  0
   -7.5146   -2.5601  -29.0264 N   0  0  0  0  0  0  0  0  0  0  0  0
   -8.5260   -3.5536  -28.9268 C   0  0  2  0  0  0  0  0  0  0  0  0
   -8.5537   -4.4971  -30.0451 C   0  0  0  0  0  0  0  0  0  0  0  0
   -9.3192   -4.2907  -31.0647 O   0  0  0  0  0  0  0  0  0  0  0  0
   -9.9220   -2.8854  -28.9059 C   0  0  1  0  0  0  0  0  0  0  0  0
  -11.0196   -3.8914  -28.8676 C   0  0  0  0  0  0  0  0  0  0  0  0
   -9.9651   -2.0296  -27.6689 C   0  0  0  0  0  0  0  0  0  0  0  0
   -7.7756   -5.6669  -30.1139 N   0  0  0  0  0  0  0  0  0  0  0  0
   -8.2646   -6.9161  -30.6523 C   0  0  2  0  0  0  0  0  0  0  0  0
   -9.5079   -6.7097  -31.3936 C   0  0  0  0  0  0  0  0  0  0  0  0
   -9.9742   -5.4928  -31.2769 O   0  0  0  0  0  0  0  0  0  0  0  0
   -8.5110   -7.9197  -29.5371 C   0  0  1  0  0  0  0  0  0  0  0  0
   -8.8273   -9.3008  -30.0382 C   0  0  0  0  0  0  0  0  0  0  0  0
   -7.3424   -7.9920  -28.5980 C   0  0  0  0  0  0  0  0  0  0  0  0
  -10.2680   -7.5549  -32.1831 N   0  0  0  0  0  0  0  0  0  0  0  0
  -10.0996   -7.6608  -33.6603 C   0  0  2  0  0  0  0  0  0  0  0  0
  -10.8988   -6.6276  -34.3324 C   0  0  0  0  0  0  0  0  0  0  0  0
  -11.5420   -6.7817  -35.3746 O   0  0  0  0  0  0  0  0  0  0  0  0
  -10.4703   -9.0519  -34.0255 C   0  0  0  0  0  0  0  0  0  0  0  0
  -11.0348   -9.6757  -32.7883 C   0  0  0  0  0  0  0  0  0  0  0  0
  -11.3351   -8.4599  -31.8967 C   0  0  0  0  0  0  0  0  0  0  0  0
  -10.9157   -5.3523  -33.7116 O   0  0  0  0  0  0  0  0  0  0  0  0
    1.5748    8.5989  -22.7692 H   0  0  0  0  0  0  0  0  0  0  0  0
  2  1  1  6
  2  3  1  0
  2  5  1  0
  3  4  2  0
  3 12  1  0
  5  6  1  0
  6  7  1  0
  7  8  1  0
  8  9  1  0
  9 10  1  0
  9 11  2  0
 12 13  1  0
 13 14  1  0
 13 16  1  1
 14 15  2  0
 14 24  1  0
 16 17  1  0
 17 18  2  0
 17 19  1  0
 18 20  1  0
 19 21  2  0
 20 22  2  0
 21 22  1  0
 22 23  1  0
 24 25  1  0
 25 26  1  0
 25 28  1  6
 26 27  2  0
 26 29  1  0
 30 29  1  6
 30 31  1  0
 30 33  1  0
 31 32  2  0
 31 36  1  0
 33 34  1  1
 33 35  1  0
 37 36  1  1
 37 38  1  0
 37 40  1  0
 38 39  2  0
 38 43  1  0
 40 41  1  6
 40 42  1  0
 43 44  1  0
 43 49  1  0
 44 45  1  6
 44 47  1  0
 45 46  2  0
 45 50  1  0
 47 48  1  0
 48 49  1  0
 11 51  1  0
M  CHG  1   1   1
M  END
$$$$
