
     RDKit          3D

 51 52  0  0  0  0  0  0  0  0999 V2000
   -2.7294   -0.5773  -22.8017 N   0  0  0  0  0  4  0  0  0  0  0  0
   -3.8514    0.3037  -22.7005 C   0  0  2  0  0  0  0  0  0  0  0  0
   -4.3423    0.8557  -23.9763 C   0  0  0  0  0  0  0  0  0  0  0  0
   -5.2686    1.7074  -23.9511 O   0  0  0  0  0  0  0  0  0  0  0  0
   -3.4581    1.4816  -21.8103 C   0  0  0  0  0  0  0  0  0  0  0  0
   -4.5469    1.8181  -20.8357 C   0  0  0  0  0  0  0  0  0  0  0  0
   -5.0568    3.2080  -21.1137 C   0  0  0  0  0  0  0  0  0  0  0  0
   -4.2662    4.2313  -20.4814 N   0  0  0  0  0  0  0  0  0  0  0  0
   -4.5417    4.6267  -19.1175 C   0  0  0  0  0  0  0  0  0  0  0  0
   -4.8003    3.7065  -18.0931 N   0  0  0  0  0  0  0  0  0  0  0  0
   -4.5435    5.8875  -18.8738 N   0  0  0  0  0  0  0  0  0  0  0  0
   -3.8641    0.5164  -25.2657 N   0  0  0  0  0  0  0  0  0  0  0  0
   -4.7224    0.6170  -26.4441 C   0  0  2  0  0  0  0  0  0  0  0  0
   -5.8275   -0.3953  -26.3433 C   0  0  0  0  0  0  0  0  0  0  0  0
   -6.4055   -0.5095  -25.2492 O   0  0  0  0  0  0  0  0  0  0  0  0
   -3.8105    0.2157  -27.6179 C   0  0  0  0  0  0  0  0  0  0  0  0
   -4.0467    1.1751  -28.7146 C   0  0  0  0  0  0  0  0  0  0  0  0
   -3.5925    0.8721  -29.9754 C   0  0  0  0  0  0  0  0  0  0  0  0
   -4.6995    2.3787  -28.5156 C   0  0  0  0  0  0  0  0  0  0  0  0
   -3.7577    1.7132  -31.0551 C   0  0  0  0  0  0  0  0  0  0  0  0
   -4.8633    3.2252  -29.6117 C   0  0  0  0  0  0  0  0  0  0  0  0
   -4.3971    2.9006  -30.8805 C   0  0  0  0  0  0  0  0  0  0  0  0
   -4.6027    3.8106  -31.9389 O   0  0  0  0  0  0  0  0  0  0  0  0
   -6.1788   -1.1788  -27.4616 N   0  0  0  0  0  0  0  0  0  0  0  0
   -7.2047   -2.2321  -27.3565 C   0  0  2  0  0  0  0  0  0  0  0  0
   -7.3028   -2.9149  -28.6536 C   0  0  0  0  0  0  0  0  0  0  0  0
   -7.7138   -2.3020  -29.6952 O   0  0  0  0  0  0  0  0  0  0  0  0
   -8.5298   -1.4348  -27.1929 C   0  0  0  0  0  0  0  0  0  0  0  0
   -6.9519   -4.2834  -28.8491 N   0  0  0  0  0  0  0  0  0  0  0  0
   -6.9641   -4.8338  -30.1594 C   0  0  2  0  0  0  0  0  0  0  0  0
   -8.2866   -5.2571  -30.6210 C   0  0  0  0  0  0  0  0  0  0  0  0
   -9.0482   -5.9807  -29.8697 O   0  0  0  0  0  0  0  0  0  0  0  0
   -6.0766   -6.1009  -30.2079 C   0  0  1  0  0  0  0  0  0  0  0  0
   -6.0925   -6.7399  -31.5532 C   0  0  0  0  0  0  0  0  0  0  0  0
   -4.6804   -5.6553  -29.8665 C   0  0  0  0  0  0  0  0  0  0  0  0
   -8.8326   -4.9232  -31.8736 N   0  0  0  0  0  0  0  0  0  0  0  0
  -10.1281   -5.3807  -32.3233 C   0  0  2  0  0  0  0  0  0  0  0  0
  -10.0032   -6.6208  -33.0878 C   0  0  0  0  0  0  0  0  0  0  0  0
   -9.0650   -6.5656  -33.9979 O   0  0  0  0  0  0  0  0  0  0  0  0
  -10.7965   -4.3263  -33.1912 C   0  0  1  0  0  0  0  0  0  0  0  0
  -12.0978   -4.7837  -33.7877 C   0  0  0  0  0  0  0  0  0  0  0  0
  -11.0243   -3.0539  -32.4284 C   0  0  0  0  0  0  0  0  0  0  0  0
  -10.6869   -7.8224  -33.0237 N   0  0  0  0  0  0  0  0  0  0  0  0
  -10.2611   -9.0428  -33.7658 C   0  0  2  0  0  0  0  0  0  0  0  0
  -10.8135   -9.0216  -35.1267 C   0  0  0  0  0  0  0  0  0  0  0  0
  -11.5985   -8.1786  -35.5704 O   0  0  0  0  0  0  0  0  0  0  0  0
  -10.6979  -10.2036  -32.9486 C   0  0  0  0  0  0  0  0  0  0  0  0
  -11.5410   -9.6479  -31.8447 C   0  0  0  0  0  0  0  0  0  0  0  0
  -11.8750   -8.2336  -32.3461 C   0  0  0  0  0  0  0  0  0  0  0  0
  -10.3944  -10.0707  -35.9847 O   0  0  0  0  0  0  0  0  0  0  0  0
   -4.4435    6.5721  -19.6502 H   0  0  0  0  0  0  0  0  0  0  0  0
  2  1  1  6
  2  3  1  0
  2  5  1  0
  3  4  2  0
  3 12  1  0
  5  6  1  0
  6  7  1  0
  7  8  1  0
  8  9  1  0
  9 10  1  0
  9 11  2  0
 12 13  1  0
 13 14  1  0
 13 16  1  6
 14 15  2  0
 14 24  1  0
 16 17  1  0
 17 18  2  0
 17 19  1  0
 18 20  1  0
 19 21  2  0
 20 22  2  0
 21 22  1  0
 22 23  1  0
 24 25  1  0
 25 26  1  0
 25 28  1  6
 26 27  2  0
 26 29  1  0
 30 29  1  1
 30 31  1  0
 30 33  1  0
 31 32  2  0
 31 36  1  0
 33 34  1  6
 33 35  1  0
 37 36  1  6
 37 38  1  0
 37 40  1  0
 38 39  2  0
 38 43  1  0
 40 41  1  1
 40 42  1  0
 43 44  1  0
 43 49  1  0
 44 45  1  6
 44 47  1  0
 45 46  2  0
 45 50  1  0
 47 48  1  0
 48 49  1  0
 11 51  1  0
M  CHG  1   1   1
M  END
$$$$
