
     RDKit          3D

 51 52  0  0  0  0  0  0  0  0999 V2000
   -0.0477    2.4227  -24.9302 N   0  0  0  0  0  4  0  0  0  0  0  0
   -1.0885    2.3328  -23.9536 C   0  0  2  0  0  0  0  0  0  0  0  0
   -2.4374    2.0673  -24.4860 C   0  0  0  0  0  0  0  0  0  0  0  0
   -2.9497    2.8990  -25.2796 O   0  0  0  0  0  0  0  0  0  0  0  0
   -1.1468    3.6555  -23.1910 C   0  0  0  0  0  0  0  0  0  0  0  0
    0.1289    4.4293  -23.3398 C   0  0  0  0  0  0  0  0  0  0  0  0
    0.9670    3.8103  -24.4277 C   0  0  0  0  0  0  0  0  0  0  0  0
    1.5426    4.7867  -25.3151 N   0  0  0  0  0  0  0  0  0  0  0  0
    2.6919    4.4474  -26.1253 C   0  0  0  0  0  0  0  0  0  0  0  0
    3.9755    4.9524  -25.8792 N   0  0  0  0  0  0  0  0  0  0  0  0
    2.4864    3.6462  -27.1075 N   0  0  0  0  0  0  0  0  0  0  0  0
   -3.2398    0.9388  -24.1874 N   0  0  0  0  0  0  0  0  0  0  0  0
   -4.4999    0.6972  -24.8868 C   0  0  2  0  0  0  0  0  0  0  0  0
   -5.1836   -0.4964  -24.2833 C   0  0  0  0  0  0  0  0  0  0  0  0
   -4.7366   -0.9340  -23.2096 O   0  0  0  0  0  0  0  0  0  0  0  0
   -4.0780    0.3330  -26.3220 C   0  0  0  0  0  0  0  0  0  0  0  0
   -5.0351    0.9747  -27.2447 C   0  0  0  0  0  0  0  0  0  0  0  0
   -6.1375    0.2677  -27.6600 C   0  0  0  0  0  0  0  0  0  0  0  0
   -4.8549    2.2621  -27.7185 C   0  0  0  0  0  0  0  0  0  0  0  0
   -7.0759    0.7824  -28.5290 C   0  0  0  0  0  0  0  0  0  0  0  0
   -5.8074    2.7770  -28.5973 C   0  0  0  0  0  0  0  0  0  0  0  0
   -6.9172    2.0461  -29.0057 C   0  0  0  0  0  0  0  0  0  0  0  0
   -7.8366    2.6382  -29.8970 O   0  0  0  0  0  0  0  0  0  0  0  0
   -6.2899   -1.0848  -24.9297 N   0  0  0  0  0  0  0  0  0  0  0  0
   -7.2952   -1.8472  -24.1675 C   0  0  2  0  0  0  0  0  0  0  0  0
   -7.9779   -2.7651  -25.0894 C   0  0  0  0  0  0  0  0  0  0  0  0
   -8.6859   -3.7344  -24.6552 O   0  0  0  0  0  0  0  0  0  0  0  0
   -8.3490   -0.7721  -23.7777 C   0  0  0  0  0  0  0  0  0  0  0  0
   -7.9088   -2.6473  -26.5091 N   0  0  0  0  0  0  0  0  0  0  0  0
   -8.7271   -3.4743  -27.3255 C   0  0  2  0  0  0  0  0  0  0  0  0
   -8.2562   -3.6117  -28.7042 C   0  0  0  0  0  0  0  0  0  0  0  0
   -8.2866   -2.6076  -29.5158 O   0  0  0  0  0  0  0  0  0  0  0  0
  -10.1504   -2.8746  -27.4252 C   0  0  1  0  0  0  0  0  0  0  0  0
  -11.0238   -3.6639  -28.3376 C   0  0  0  0  0  0  0  0  0  0  0  0
  -10.7165   -2.8892  -26.0310 C   0  0  0  0  0  0  0  0  0  0  0  0
   -7.7413   -4.8014  -29.2504 N   0  0  0  0  0  0  0  0  0  0  0  0
   -7.1075   -4.8710  -30.5478 C   0  0  2  0  0  0  0  0  0  0  0  0
   -8.0523   -5.3365  -31.5619 C   0  0  0  0  0  0  0  0  0  0  0  0
   -8.6711   -6.4358  -31.2150 O   0  0  0  0  0  0  0  0  0  0  0  0
   -5.9138   -5.8120  -30.5105 C   0  0  1  0  0  0  0  0  0  0  0  0
   -5.1332   -5.8344  -31.7946 C   0  0  0  0  0  0  0  0  0  0  0  0
   -4.9886   -5.4774  -29.3771 C   0  0  0  0  0  0  0  0  0  0  0  0
   -8.4045   -4.8327  -32.8019 N   0  0  0  0  0  0  0  0  0  0  0  0
   -9.5597   -5.3457  -33.5918 C   0  0  2  0  0  0  0  0  0  0  0  0
   -9.1450   -6.5043  -34.3938 C   0  0  0  0  0  0  0  0  0  0  0  0
   -7.9821   -6.8825  -34.5620 O   0  0  0  0  0  0  0  0  0  0  0  0
  -10.0625   -4.1994  -34.3911 C   0  0  0  0  0  0  0  0  0  0  0  0
   -9.0754   -3.0907  -34.2046 C   0  0  0  0  0  0  0  0  0  0  0  0
   -7.8455   -3.8177  -33.6368 C   0  0  0  0  0  0  0  0  0  0  0  0
  -10.1886   -7.2337  -35.0192 O   0  0  0  0  0  0  0  0  0  0  0  0
    1.5367    3.2587  -27.2786 H   0  0  0  0  0  0  0  0  0  0  0  0
  2  1  1  6
  2  3  1  0
  2  5  1  0
  3  4  2  0
  3 12  1  0
  5  6  1  0
  6  7  1  0
  7  8  1  0
  8  9  1  0
  9 10  1  0
  9 11  2  0
 12 13  1  0
 13 14  1  0
 13 16  1  6
 14 15  2  0
 14 24  1  0
 16 17  1  0
 17 18  2  0
 17 19  1  0
 18 20  1  0
 19 21  2  0
 20 22  2  0
 21 22  1  0
 22 23  1  0
 24 25  1  0
 25 26  1  0
 25 28  1  6
 26 27  2  0
 26 29  1  0
 30 29  1  1
 30 31  1  0
 30 33  1  0
 31 32  2  0
 31 36  1  0
 33 34  1  6
 33 35  1  0
 37 36  1  1
 37 38  1  0
 37 40  1  0
 38 39  2  0
 38 43  1  0
 40 41  1  6
 40 42  1  0
 43 44  1  0
 43 49  1  0
 44 45  1  6
 44 47  1  0
 45 46  2  0
 45 50  1  0
 47 48  1  0
 48 49  1  0
 11 51  1  0
M  CHG  1   1   1
M  END
$$$$
