
     RDKit          3D

 51 52  0  0  0  0  0  0  0  0999 V2000
   -6.5411   -5.4914  -32.4532 N   0  0  0  0  0  4  0  0  0  0  0  0
   -7.2886   -5.9556  -31.3259 C   0  0  2  0  0  0  0  0  0  0  0  0
   -7.1183   -5.1758  -30.0864 C   0  0  0  0  0  0  0  0  0  0  0  0
   -6.9447   -5.7916  -29.0026 O   0  0  0  0  0  0  0  0  0  0  0  0
   -6.8643   -7.3928  -31.0274 C   0  0  0  0  0  0  0  0  0  0  0  0
   -7.6630   -7.9760  -29.9002 C   0  0  0  0  0  0  0  0  0  0  0  0
   -7.1594   -9.3621  -29.5933 C   0  0  0  0  0  0  0  0  0  0  0  0
   -7.2466  -10.2520  -30.7213 N   0  0  0  0  0  0  0  0  0  0  0  0
   -8.3664  -11.1588  -30.8493 C   0  0  0  0  0  0  0  0  0  0  0  0
   -9.4033  -11.2291  -29.9096 N   0  0  0  0  0  0  0  0  0  0  0  0
   -8.3741  -11.9202  -31.8833 N   0  0  0  0  0  0  0  0  0  0  0  0
   -7.1301   -3.7629  -29.9870 N   0  0  0  0  0  0  0  0  0  0  0  0
   -7.9261   -3.0803  -28.9692 C   0  0  2  0  0  0  0  0  0  0  0  0
   -7.0106   -2.3570  -28.0231 C   0  0  0  0  0  0  0  0  0  0  0  0
   -6.2030   -3.0386  -27.3696 O   0  0  0  0  0  0  0  0  0  0  0  0
   -8.6145   -4.2184  -28.1940 C   0  0  0  0  0  0  0  0  0  0  0  0
   -9.2723   -3.6211  -27.0152 C   0  0  0  0  0  0  0  0  0  0  0  0
   -9.9417   -2.4297  -27.1571 C   0  0  0  0  0  0  0  0  0  0  0  0
   -9.2280   -4.2129  -25.7653 C   0  0  0  0  0  0  0  0  0  0  0  0
  -10.5738   -1.7944  -26.1096 C   0  0  0  0  0  0  0  0  0  0  0  0
   -9.8691   -3.5652  -24.7098 C   0  0  0  0  0  0  0  0  0  0  0  0
  -10.5423   -2.3599  -24.8732 C   0  0  0  0  0  0  0  0  0  0  0  0
  -11.1667   -1.7675  -23.7555 O   0  0  0  0  0  0  0  0  0  0  0  0
   -7.0835   -0.9548  -27.8951 N   0  0  0  0  0  0  0  0  0  0  0  0
   -6.0230   -0.0883  -28.4405 C   0  0  2  0  0  0  0  0  0  0  0  0
   -4.8952   -0.0872  -27.4988 C   0  0  0  0  0  0  0  0  0  0  0  0
   -4.8041   -0.9620  -26.5738 O   0  0  0  0  0  0  0  0  0  0  0  0
   -6.6423    1.3362  -28.3659 C   0  0  0  0  0  0  0  0  0  0  0  0
   -3.8356    0.8665  -27.5439 N   0  0  0  0  0  0  0  0  0  0  0  0
   -2.8145    0.8326  -26.5559 C   0  0  2  0  0  0  0  0  0  0  0  0
   -2.5262    2.1307  -25.9450 C   0  0  0  0  0  0  0  0  0  0  0  0
   -2.2780    3.1650  -26.6776 O   0  0  0  0  0  0  0  0  0  0  0  0
   -1.4832    0.3608  -27.1887 C   0  0  1  0  0  0  0  0  0  0  0  0
   -0.3357    0.5181  -26.2522 C   0  0  0  0  0  0  0  0  0  0  0  0
   -1.6686   -1.0917  -27.5357 C   0  0  0  0  0  0  0  0  0  0  0  0
   -2.4997    2.3651  -24.5583 N   0  0  0  0  0  0  0  0  0  0  0  0
   -2.2073    3.6555  -23.9759 C   0  0  2  0  0  0  0  0  0  0  0  0
   -0.9478    4.1856  -24.4960 C   0  0  0  0  0  0  0  0  0  0  0  0
   -0.0090    3.2780  -24.5789 O   0  0  0  0  0  0  0  0  0  0  0  0
   -2.1158    3.5510  -22.4618 C   0  0  1  0  0  0  0  0  0  0  0  0
   -1.7180    4.8399  -21.7991 C   0  0  0  0  0  0  0  0  0  0  0  0
   -3.4071    3.0693  -21.8675 C   0  0  0  0  0  0  0  0  0  0  0  0
   -0.5755    5.4527  -24.9096 N   0  0  0  0  0  0  0  0  0  0  0  0
    0.6917    5.7309  -25.6435 C   0  0  2  0  0  0  0  0  0  0  0  0
    1.7916    5.9279  -24.6899 C   0  0  0  0  0  0  0  0  0  0  0  0
    2.9599    6.1944  -24.9859 O   0  0  0  0  0  0  0  0  0  0  0  0
    0.4225    6.9034  -26.5145 C   0  0  0  0  0  0  0  0  0  0  0  0
   -0.9321    7.4102  -26.1316 C   0  0  0  0  0  0  0  0  0  0  0  0
   -1.1772    6.7404  -24.7697 C   0  0  0  0  0  0  0  0  0  0  0  0
    1.4570    5.7941  -23.3180 O   0  0  0  0  0  0  0  0  0  0  0  0
   -7.6564  -11.8029  -32.6266 H   0  0  0  0  0  0  0  0  0  0  0  0
  2  1  1  6
  2  3  1  0
  2  5  1  0
  3  4  2  0
  3 12  1  0
  5  6  1  0
  6  7  1  0
  7  8  1  0
  8  9  1  0
  9 10  1  0
  9 11  2  0
 12 13  1  0
 13 14  1  0
 13 16  1  1
 14 15  2  0
 14 24  1  0
 16 17  1  0
 17 18  2  0
 17 19  1  0
 18 20  1  0
 19 21  2  0
 20 22  2  0
 21 22  1  0
 22 23  1  0
 24 25  1  0
 25 26  1  0
 25 28  1  1
 26 27  2  0
 26 29  1  0
 30 29  1  6
 30 31  1  0
 30 33  1  0
 31 32  2  0
 31 36  1  0
 33 34  1  1
 33 35  1  0
 37 36  1  6
 37 38  1  0
 37 40  1  0
 38 39  2  0
 38 43  1  0
 40 41  1  1
 40 42  1  0
 43 44  1  0
 43 49  1  0
 44 45  1  1
 44 47  1  0
 45 46  2  0
 45 50  1  0
 47 48  1  0
 48 49  1  0
 11 51  1  0
M  CHG  1   1   1
M  END
$$$$
