
     RDKit          3D

 51 52  0  0  0  0  0  0  0  0999 V2000
   -2.3971    1.1596  -26.6787 N   0  0  0  0  0  4  0  0  0  0  0  0
   -2.1546    0.4051  -25.4882 C   0  0  2  0  0  0  0  0  0  0  0  0
   -3.3471    0.0970  -24.6780 C   0  0  0  0  0  0  0  0  0  0  0  0
   -3.8412   -1.0587  -24.7429 O   0  0  0  0  0  0  0  0  0  0  0  0
   -1.1908    1.1972  -24.6059 C   0  0  0  0  0  0  0  0  0  0  0  0
   -0.6054    2.3632  -25.3450 C   0  0  0  0  0  0  0  0  0  0  0  0
    0.6164    2.8571  -24.6154 C   0  0  0  0  0  0  0  0  0  0  0  0
    1.8199    2.1747  -25.0129 N   0  0  0  0  0  0  0  0  0  0  0  0
    3.0236    2.9253  -25.2963 C   0  0  0  0  0  0  0  0  0  0  0  0
    3.4437    3.2320  -26.5973 N   0  0  0  0  0  0  0  0  0  0  0  0
    3.7139    3.3084  -24.2835 N   0  0  0  0  0  0  0  0  0  0  0  0
   -4.0134    0.9944  -23.8078 N   0  0  0  0  0  0  0  0  0  0  0  0
   -5.3344    1.5274  -24.1336 C   0  0  2  0  0  0  0  0  0  0  0  0
   -6.1222    0.4863  -24.8764 C   0  0  0  0  0  0  0  0  0  0  0  0
   -5.5385   -0.1467  -25.7723 O   0  0  0  0  0  0  0  0  0  0  0  0
   -5.0502    2.6927  -25.0988 C   0  0  0  0  0  0  0  0  0  0  0  0
   -4.6916    3.8699  -24.2835 C   0  0  0  0  0  0  0  0  0  0  0  0
   -4.5570    3.7240  -22.9241 C   0  0  0  0  0  0  0  0  0  0  0  0
   -4.4982    5.1222  -24.8391 C   0  0  0  0  0  0  0  0  0  0  0  0
   -4.2368    4.7697  -22.0848 C   0  0  0  0  0  0  0  0  0  0  0  0
   -4.1747    6.1760  -23.9849 C   0  0  0  0  0  0  0  0  0  0  0  0
   -4.0422    6.0084  -22.6112 C   0  0  0  0  0  0  0  0  0  0  0  0
   -3.7120    7.1245  -21.8140 O   0  0  0  0  0  0  0  0  0  0  0  0
   -7.4749    0.2536  -24.5541 N   0  0  0  0  0  0  0  0  0  0  0  0
   -8.2687   -0.7447  -25.2932 C   0  0  2  0  0  0  0  0  0  0  0  0
   -7.5267   -1.1235  -26.5033 C   0  0  0  0  0  0  0  0  0  0  0  0
   -6.5286   -0.4392  -26.9094 O   0  0  0  0  0  0  0  0  0  0  0  0
   -9.5030    0.0631  -25.7851 C   0  0  0  0  0  0  0  0  0  0  0  0
   -7.8521   -2.2607  -27.3002 N   0  0  0  0  0  0  0  0  0  0  0  0
   -6.9273   -2.7273  -28.2733 C   0  0  2  0  0  0  0  0  0  0  0  0
   -7.4443   -3.7947  -29.1305 C   0  0  0  0  0  0  0  0  0  0  0  0
   -6.6651   -4.4216  -29.9477 O   0  0  0  0  0  0  0  0  0  0  0  0
   -5.6785   -3.3169  -27.5746 C   0  0  1  0  0  0  0  0  0  0  0  0
   -6.0239   -4.4720  -26.7000 C   0  0  0  0  0  0  0  0  0  0  0  0
   -4.7484   -3.7619  -28.6707 C   0  0  0  0  0  0  0  0  0  0  0  0
   -8.7836   -4.2247  -29.1393 N   0  0  0  0  0  0  0  0  0  0  0  0
   -9.2248   -5.4369  -29.7918 C   0  0  2  0  0  0  0  0  0  0  0  0
   -8.7718   -5.4717  -31.1816 C   0  0  0  0  0  0  0  0  0  0  0  0
   -8.8648   -4.3102  -31.7767 O   0  0  0  0  0  0  0  0  0  0  0  0
  -10.7413   -5.5403  -29.7600 C   0  0  1  0  0  0  0  0  0  0  0  0
  -11.2694   -6.7628  -30.4567 C   0  0  0  0  0  0  0  0  0  0  0  0
  -11.2623   -5.5116  -28.3526 C   0  0  0  0  0  0  0  0  0  0  0  0
   -8.2710   -6.4943  -31.9682 N   0  0  0  0  0  0  0  0  0  0  0  0
   -7.6971   -6.2719  -33.3257 C   0  0  2  0  0  0  0  0  0  0  0  0
   -8.7676   -6.2815  -34.3315 C   0  0  0  0  0  0  0  0  0  0  0  0
   -8.6305   -6.0158  -35.5291 O   0  0  0  0  0  0  0  0  0  0  0  0
   -6.6665   -7.3232  -33.5221 C   0  0  0  0  0  0  0  0  0  0  0  0
   -6.7919   -8.2580  -32.3607 C   0  0  0  0  0  0  0  0  0  0  0  0
   -8.1736   -7.9074  -31.7852 C   0  0  0  0  0  0  0  0  0  0  0  0
  -10.0602   -6.6279  -33.8610 O   0  0  0  0  0  0  0  0  0  0  0  0
    3.7532    2.7243  -23.4241 H   0  0  0  0  0  0  0  0  0  0  0  0
  2  1  1  6
  2  3  1  0
  2  5  1  0
  3  4  2  0
  3 12  1  0
  5  6  1  0
  6  7  1  0
  7  8  1  0
  8  9  1  0
  9 10  1  0
  9 11  2  0
 12 13  1  0
 13 14  1  0
 13 16  1  6
 14 15  2  0
 14 24  1  0
 16 17  1  0
 17 18  2  0
 17 19  1  0
 18 20  1  0
 19 21  2  0
 20 22  2  0
 21 22  1  0
 22 23  1  0
 24 25  1  0
 25 26  1  0
 25 28  1  6
 26 27  2  0
 26 29  1  0
 30 29  1  1
 30 31  1  0
 30 33  1  0
 31 32  2  0
 31 36  1  0
 33 34  1  1
 33 35  1  0
 37 36  1  6
 37 38  1  0
 37 40  1  0
 38 39  2  0
 38 43  1  0
 40 41  1  1
 40 42  1  0
 43 44  1  0
 43 49  1  0
 44 45  1  6
 44 47  1  0
 45 46  2  0
 45 50  1  0
 47 48  1  0
 48 49  1  0
 11 51  1  0
M  CHG  1   1   1
M  END
$$$$
