
     RDKit          3D

 51 52  0  0  0  0  0  0  0  0999 V2000
   -0.4964    3.2398  -27.1989 N   0  0  0  0  0  4  0  0  0  0  0  0
   -1.3342    2.3106  -26.5063 C   0  0  2  0  0  0  0  0  0  0  0  0
   -2.6885    2.1395  -27.0631 C   0  0  0  0  0  0  0  0  0  0  0  0
   -3.4537    3.1376  -27.1119 O   0  0  0  0  0  0  0  0  0  0  0  0
   -1.4870    2.7859  -25.0622 C   0  0  0  0  0  0  0  0  0  0  0  0
   -1.1209    1.7053  -24.0891 C   0  0  0  0  0  0  0  0  0  0  0  0
   -1.0706    2.2796  -22.6974 C   0  0  0  0  0  0  0  0  0  0  0  0
   -2.2989    2.9244  -22.3132 N   0  0  0  0  0  0  0  0  0  0  0  0
   -3.3293    2.1782  -21.6247 C   0  0  0  0  0  0  0  0  0  0  0  0
   -4.6899    2.2842  -21.9421 N   0  0  0  0  0  0  0  0  0  0  0  0
   -2.9408    1.3954  -20.6839 N   0  0  0  0  0  0  0  0  0  0  0  0
   -3.2331    0.9316  -27.5639 N   0  0  0  0  0  0  0  0  0  0  0  0
   -4.6053    0.8669  -28.0621 C   0  0  2  0  0  0  0  0  0  0  0  0
   -5.4649    0.1477  -27.0621 C   0  0  0  0  0  0  0  0  0  0  0  0
   -4.9614   -0.8123  -26.4549 O   0  0  0  0  0  0  0  0  0  0  0  0
   -4.5126   -0.0038  -29.3285 C   0  0  0  0  0  0  0  0  0  0  0  0
   -5.8838   -0.1924  -29.8416 C   0  0  0  0  0  0  0  0  0  0  0  0
   -6.0903   -1.0525  -30.8928 C   0  0  0  0  0  0  0  0  0  0  0  0
   -6.9707    0.4780  -29.3091 C   0  0  0  0  0  0  0  0  0  0  0  0
   -7.3335   -1.2804  -31.4435 C   0  0  0  0  0  0  0  0  0  0  0  0
   -8.2255    0.2435  -29.8706 C   0  0  0  0  0  0  0  0  0  0  0  0
   -8.4146   -0.6316  -30.9341 C   0  0  0  0  0  0  0  0  0  0  0  0
   -9.7163   -0.8155  -31.4462 O   0  0  0  0  0  0  0  0  0  0  0  0
   -6.7937    0.5624  -26.8376 N   0  0  0  0  0  0  0  0  0  0  0  0
   -7.5129    0.1700  -25.6122 C   0  0  2  0  0  0  0  0  0  0  0  0
   -7.7723   -1.2750  -25.6695 C   0  0  0  0  0  0  0  0  0  0  0  0
   -7.1739   -2.0867  -24.8870 O   0  0  0  0  0  0  0  0  0  0  0  0
   -8.8986    0.8585  -25.7669 C   0  0  0  0  0  0  0  0  0  0  0  0
   -8.6939   -1.8719  -26.5798 N   0  0  0  0  0  0  0  0  0  0  0  0
   -8.8797   -3.2809  -26.5720 C   0  0  2  0  0  0  0  0  0  0  0  0
   -8.3682   -3.9610  -27.7625 C   0  0  0  0  0  0  0  0  0  0  0  0
   -8.4622   -5.2435  -27.8823 O   0  0  0  0  0  0  0  0  0  0  0  0
  -10.3901   -3.6138  -26.5141 C   0  0  1  0  0  0  0  0  0  0  0  0
  -10.6504   -5.0603  -26.7556 C   0  0  0  0  0  0  0  0  0  0  0  0
  -10.8575   -3.2300  -25.1362 C   0  0  0  0  0  0  0  0  0  0  0  0
   -7.7564   -3.3066  -28.8471 N   0  0  0  0  0  0  0  0  0  0  0  0
   -7.3128   -3.9911  -30.0406 C   0  0  2  0  0  0  0  0  0  0  0  0
   -6.0717   -4.7216  -29.7881 C   0  0  0  0  0  0  0  0  0  0  0  0
   -5.2728   -4.0976  -28.9608 O   0  0  0  0  0  0  0  0  0  0  0  0
   -7.0862   -3.0013  -31.1723 C   0  0  1  0  0  0  0  0  0  0  0  0
   -6.4676   -3.6236  -32.3924 C   0  0  0  0  0  0  0  0  0  0  0  0
   -8.3625   -2.3148  -31.5625 C   0  0  0  0  0  0  0  0  0  0  0  0
   -5.5971   -5.9337  -30.2582 N   0  0  0  0  0  0  0  0  0  0  0  0
   -4.3726   -6.5928  -29.7218 C   0  0  2  0  0  0  0  0  0  0  0  0
   -3.1819   -6.0778  -30.4108 C   0  0  0  0  0  0  0  0  0  0  0  0
   -3.1411   -5.6900  -31.5820 O   0  0  0  0  0  0  0  0  0  0  0  0
   -4.5820   -8.0550  -29.8768 C   0  0  0  0  0  0  0  0  0  0  0  0
   -5.8354   -8.2183  -30.6773 C   0  0  0  0  0  0  0  0  0  0  0  0
   -6.0386   -6.8215  -31.2862 C   0  0  0  0  0  0  0  0  0  0  0  0
   -1.9896   -6.0335  -29.6436 O   0  0  0  0  0  0  0  0  0  0  0  0
   -2.5449    0.4606  -20.9092 H   0  0  0  0  0  0  0  0  0  0  0  0
  2  1  1  6
  2  3  1  0
  2  5  1  0
  3  4  2  0
  3 12  1  0
  5  6  1  0
  6  7  1  0
  7  8  1  0
  8  9  1  0
  9 10  1  0
  9 11  2  0
 12 13  1  0
 13 14  1  0
 13 16  1  6
 14 15  2  0
 14 24  1  0
 16 17  1  0
 17 18  2  0
 17 19  1  0
 18 20  1  0
 19 21  2  0
 20 22  2  0
 21 22  1  0
 22 23  1  0
 24 25  1  0
 25 26  1  0
 25 28  1  6
 26 27  2  0
 26 29  1  0
 30 29  1  6
 30 31  1  0
 30 33  1  0
 31 32  2  0
 31 36  1  0
 33 34  1  1
 33 35  1  0
 37 36  1  1
 37 38  1  0
 37 40  1  0
 38 39  2  0
 38 43  1  0
 40 41  1  6
 40 42  1  0
 43 44  1  0
 43 49  1  0
 44 45  1  6
 44 47  1  0
 45 46  2  0
 45 50  1  0
 47 48  1  0
 48 49  1  0
 11 51  1  0
M  CHG  1   1   1
M  END
$$$$
