
     RDKit          3D

 51 52  0  0  0  0  0  0  0  0999 V2000
   -6.3762   -8.8809  -34.1272 N   0  0  0  0  0  4  0  0  0  0  0  0
   -7.2795   -8.5860  -33.0584 C   0  0  2  0  0  0  0  0  0  0  0  0
   -6.9307   -7.4119  -32.2380 C   0  0  0  0  0  0  0  0  0  0  0  0
   -6.4572   -7.5967  -31.0867 O   0  0  0  0  0  0  0  0  0  0  0  0
   -7.3348   -9.7972  -32.1286 C   0  0  0  0  0  0  0  0  0  0  0  0
   -8.6240   -9.8414  -31.3640 C   0  0  0  0  0  0  0  0  0  0  0  0
   -9.7739   -9.5935  -32.3050 C   0  0  0  0  0  0  0  0  0  0  0  0
  -11.0539   -9.6343  -31.6478 N   0  0  0  0  0  0  0  0  0  0  0  0
  -11.9257  -10.7756  -31.8204 C   0  0  0  0  0  0  0  0  0  0  0  0
  -13.1124  -10.9466  -31.0953 N   0  0  0  0  0  0  0  0  0  0  0  0
  -11.5605  -11.6525  -32.6846 N   0  0  0  0  0  0  0  0  0  0  0  0
   -7.0776   -6.0569  -32.6240 N   0  0  0  0  0  0  0  0  0  0  0  0
   -7.8853   -5.1271  -31.8374 C   0  0  2  0  0  0  0  0  0  0  0  0
   -7.2851   -4.9812  -30.4682 C   0  0  0  0  0  0  0  0  0  0  0  0
   -7.4745   -5.9018  -29.6555 O   0  0  0  0  0  0  0  0  0  0  0  0
   -9.2468   -5.8308  -31.6915 C   0  0  0  0  0  0  0  0  0  0  0  0
   -9.9781   -5.6554  -32.9617 C   0  0  0  0  0  0  0  0  0  0  0  0
   -9.4200   -4.8834  -33.9516 C   0  0  0  0  0  0  0  0  0  0  0  0
  -11.2156   -6.2316  -33.1874 C   0  0  0  0  0  0  0  0  0  0  0  0
  -10.0366   -4.6554  -35.1634 C   0  0  0  0  0  0  0  0  0  0  0  0
  -11.8343   -5.9971  -34.4150 C   0  0  0  0  0  0  0  0  0  0  0  0
  -11.2531   -5.2131  -35.4051 C   0  0  0  0  0  0  0  0  0  0  0  0
  -11.9426   -5.0238  -36.6212 O   0  0  0  0  0  0  0  0  0  0  0  0
   -6.5389   -3.8315  -30.1374 N   0  0  0  0  0  0  0  0  0  0  0  0
   -5.9506   -3.6705  -28.7954 C   0  0  2  0  0  0  0  0  0  0  0  0
   -6.7990   -2.7516  -28.0244 C   0  0  0  0  0  0  0  0  0  0  0  0
   -7.4270   -1.7964  -28.5922 O   0  0  0  0  0  0  0  0  0  0  0  0
   -4.6268   -2.9015  -29.0680 C   0  0  0  0  0  0  0  0  0  0  0  0
   -6.9871   -2.8531  -26.6143 N   0  0  0  0  0  0  0  0  0  0  0  0
   -7.4930   -1.7405  -25.8890 C   0  0  2  0  0  0  0  0  0  0  0  0
   -6.4615   -0.8367  -25.3786 C   0  0  0  0  0  0  0  0  0  0  0  0
   -5.4371   -1.2966  -24.7405 O   0  0  0  0  0  0  0  0  0  0  0  0
   -8.2740   -2.2315  -24.6462 C   0  0  1  0  0  0  0  0  0  0  0  0
   -8.7830   -1.0976  -23.8254 C   0  0  0  0  0  0  0  0  0  0  0  0
   -9.4260   -3.0496  -25.1640 C   0  0  0  0  0  0  0  0  0  0  0  0
   -6.4853    0.5611  -25.5346 N   0  0  0  0  0  0  0  0  0  0  0  0
   -5.3697    1.4173  -25.1996 C   0  0  2  0  0  0  0  0  0  0  0  0
   -5.4269    1.8170  -23.7943 C   0  0  0  0  0  0  0  0  0  0  0  0
   -6.6445    2.0648  -23.3845 O   0  0  0  0  0  0  0  0  0  0  0  0
   -5.3702    2.6628  -26.0716 C   0  0  1  0  0  0  0  0  0  0  0  0
   -4.3010    3.6509  -25.6988 C   0  0  0  0  0  0  0  0  0  0  0  0
   -5.2331    2.3133  -27.5248 C   0  0  0  0  0  0  0  0  0  0  0  0
   -4.4421    1.9780  -22.8353 N   0  0  0  0  0  0  0  0  0  0  0  0
   -4.7391    2.2161  -21.3943 C   0  0  2  0  0  0  0  0  0  0  0  0
   -4.9397    3.6511  -21.1530 C   0  0  0  0  0  0  0  0  0  0  0  0
   -4.6531    4.5587  -21.9391 O   0  0  0  0  0  0  0  0  0  0  0  0
   -3.6127    1.6211  -20.6306 C   0  0  0  0  0  0  0  0  0  0  0  0
   -2.5844    1.2204  -21.6407 C   0  0  0  0  0  0  0  0  0  0  0  0
   -3.0153    1.9962  -22.8960 C   0  0  0  0  0  0  0  0  0  0  0  0
   -5.5119    3.9977  -19.9022 O   0  0  0  0  0  0  0  0  0  0  0  0
  -10.5756  -11.6832  -33.0168 H   0  0  0  0  0  0  0  0  0  0  0  0
  2  1  1  6
  2  3  1  0
  2  5  1  0
  3  4  2  0
  3 12  1  0
  5  6  1  0
  6  7  1  0
  7  8  1  0
  8  9  1  0
  9 10  1  0
  9 11  2  0
 12 13  1  0
 13 14  1  0
 13 16  1  1
 14 15  2  0
 14 24  1  0
 16 17  1  0
 17 18  2  0
 17 19  1  0
 18 20  1  0
 19 21  2  0
 20 22  2  0
 21 22  1  0
 22 23  1  0
 24 25  1  0
 25 26  1  0
 25 28  1  6
 26 27  2  0
 26 29  1  0
 30 29  1  1
 30 31  1  0
 30 33  1  0
 31 32  2  0
 31 36  1  0
 33 34  1  6
 33 35  1  0
 37 36  1  6
 37 38  1  0
 37 40  1  0
 38 39  2  0
 38 43  1  0
 40 41  1  1
 40 42  1  0
 43 44  1  0
 43 49  1  0
 44 45  1  6
 44 47  1  0
 45 46  2  0
 45 50  1  0
 47 48  1  0
 48 49  1  0
 11 51  1  0
M  CHG  1   1   1
M  END
$$$$
