
     RDKit          3D

 23 26  0  0  0  0  0  0  0  0999 V2000
   91.7669   93.2395  -43.4738 N   0  0  0  0  0  0  0  0  0  0  0  0
   89.6679   90.8620  -48.9848 N   0  0  0  0  0  4  0  0  0  0  0  0
   91.3643   95.6002  -42.7187 C   0  0  0  0  0  0  0  0  0  0  0  0
   91.4185   94.5361  -43.5846 C   0  0  0  0  0  0  0  0  0  0  0  0
   91.0437   94.7627  -44.8983 C   0  0  0  0  0  0  0  0  0  0  0  0
   91.6226   92.6489  -44.6724 C   0  0  0  0  0  0  0  0  0  0  0  0
   91.1687   93.5738  -45.5984 C   0  0  0  0  0  0  0  0  0  0  0  0
   91.1636   91.8860  -47.3420 C   0  0  0  0  0  0  0  0  0  0  0  0
   92.2190   92.6054  -42.2574 C   0  0  0  0  0  0  0  0  0  0  0  0
   90.9103   97.9526  -42.1795 C   0  0  0  0  0  0  0  0  0  0  0  0
   91.1127   97.8678  -40.8282 C   0  0  0  0  0  0  0  0  0  0  0  0
   90.6297   95.9986  -45.3406 C   0  0  0  0  0  0  0  0  0  0  0  0
   90.5802   97.0550  -44.4637 C   0  0  0  0  0  0  0  0  0  0  0  0
   90.9500   96.8636  -43.1343 C   0  0  0  0  0  0  0  0  0  0  0  0
   90.9515   93.1744  -46.9009 C   0  0  0  0  0  0  0  0  0  0  0  0
   91.6153   90.9731  -46.4138 C   0  0  0  0  0  0  0  0  0  0  0  0
   91.8389   91.3511  -45.1066 C   0  0  0  0  0  0  0  0  0  0  0  0
   93.6640   92.8875  -41.9517 C   0  0  0  0  0  0  0  0  0  0  0  0
   90.6630   99.2682  -42.4554 C   0  0  0  0  0  0  0  0  0  0  0  0
   90.7170   99.9291  -41.3181 O   0  0  0  0  0  0  0  0  0  0  0  0
   90.9819   99.1343  -40.3247 N   0  0  0  0  0  0  0  0  0  0  0  0
   90.8981   91.5565  -48.7651 C   0  0  0  0  0  0  0  0  0  0  0  0
   89.4011   90.6548  -50.3948 C   0  0  0  0  0  0  0  0  0  0  0  0
  4  1  1  0
  1  6  1  0
  1  9  1  0
 22  2  1  0
  2 23  1  0
  3  4  2  0
 14  3  1  0
  4  5  1  0
  5  7  1  0
  5 12  2  0
  7  6  2  0
  6 17  1  0
  7 15  1  0
 15  8  2  0
  8 16  1  0
  8 22  1  0
  9 18  1  0
 10 11  1  0
 10 14  1  0
 10 19  2  0
 11 21  2  0
 12 13  1  0
 13 14  2  0
 16 17  2  0
 19 20  1  0
 20 21  1  0
M  CHG  1   2   1
M  END
$$$$
