
     RDKit          3D

 23 26  0  0  0  0  0  0  0  0999 V2000
   90.4254   92.7642  -46.9682 N   0  0  0  0  0  0  0  0  0  0  0  0
   88.4820   97.5304  -50.7726 N   0  0  0  0  0  4  0  0  0  0  0  0
   91.4890   92.8800  -44.6965 C   0  0  0  0  0  0  0  0  0  0  0  0
   90.8323   93.3298  -45.8152 C   0  0  0  0  0  0  0  0  0  0  0  0
   90.4666   94.6651  -45.8467 C   0  0  0  0  0  0  0  0  0  0  0  0
   89.8184   93.6999  -47.7183 C   0  0  0  0  0  0  0  0  0  0  0  0
   89.8229   94.9123  -47.0482 C   0  0  0  0  0  0  0  0  0  0  0  0
   88.6554   95.9796  -48.8886 C   0  0  0  0  0  0  0  0  0  0  0  0
   90.6184   91.3775  -47.3227 C   0  0  0  0  0  0  0  0  0  0  0  0
   92.4760   93.1990  -42.4707 C   0  0  0  0  0  0  0  0  0  0  0  0
   92.9026   93.9050  -41.3781 C   0  0  0  0  0  0  0  0  0  0  0  0
   90.7408   95.5257  -44.8083 C   0  0  0  0  0  0  0  0  0  0  0  0
   91.3985   95.0626  -43.6945 C   0  0  0  0  0  0  0  0  0  0  0  0
   91.7815   93.7249  -43.6283 C   0  0  0  0  0  0  0  0  0  0  0  0
   89.2461   96.0149  -47.6439 C   0  0  0  0  0  0  0  0  0  0  0  0
   88.6559   94.7692  -49.5474 C   0  0  0  0  0  0  0  0  0  0  0  0
   89.2269   93.6545  -48.9703 C   0  0  0  0  0  0  0  0  0  0  0  0
   91.9110   91.1335  -48.0513 C   0  0  0  0  0  0  0  0  0  0  0  0
   92.8329   91.8970  -42.2578 C   0  0  0  0  0  0  0  0  0  0  0  0
   93.4424   91.8379  -41.0924 O   0  0  0  0  0  0  0  0  0  0  0  0
   93.5056   93.0103  -40.5351 N   0  0  0  0  0  0  0  0  0  0  0  0
   88.0604   97.2222  -49.4417 C   0  0  0  0  0  0  0  0  0  0  0  0
   87.8084   98.6998  -51.3028 C   0  0  0  0  0  0  0  0  0  0  0  0
  4  1  1  0
  1  6  1  0
  1  9  1  0
 22  2  1  0
  2 23  1  0
  3  4  2  0
 14  3  1  0
  4  5  1  0
  5  7  1  0
  5 12  2  0
  7  6  2  0
  6 17  1  0
  7 15  1  0
 15  8  2  0
  8 16  1  0
  8 22  1  0
  9 18  1  0
 10 11  1  0
 10 14  1  0
 10 19  2  0
 11 21  2  0
 12 13  1  0
 13 14  2  0
 16 17  2  0
 19 20  1  0
 20 21  1  0
M  CHG  1   2   1
M  END
$$$$
