
     RDKit          3D

 23 26  0  0  0  0  0  0  0  0999 V2000
   91.8561   93.8370  -43.0188 N   0  0  0  0  0  0  0  0  0  0  0  0
   89.9315   99.6943  -41.4628 N   0  0  0  0  0  4  0  0  0  0  0  0
   91.5138   92.8099  -45.2844 C   0  0  0  0  0  0  0  0  0  0  0  0
   91.5665   93.7992  -44.3339 C   0  0  0  0  0  0  0  0  0  0  0  0
   91.2661   95.0892  -44.7383 C   0  0  0  0  0  0  0  0  0  0  0  0
   91.7470   95.1055  -42.5881 C   0  0  0  0  0  0  0  0  0  0  0  0
   91.3770   95.9269  -43.6405 C   0  0  0  0  0  0  0  0  0  0  0  0
   91.3902   97.8674  -42.1834 C   0  0  0  0  0  0  0  0  0  0  0  0
   92.2222   92.6914  -42.2190 C   0  0  0  0  0  0  0  0  0  0  0  0
   91.1324   92.0003  -47.5712 C   0  0  0  0  0  0  0  0  0  0  0  0
   91.0251   92.1160  -48.9311 C   0  0  0  0  0  0  0  0  0  0  0  0
   90.9253   95.3904  -46.0372 C   0  0  0  0  0  0  0  0  0  0  0  0
   90.8762   94.3909  -46.9785 C   0  0  0  0  0  0  0  0  0  0  0  0
   91.1724   93.0812  -46.6074 C   0  0  0  0  0  0  0  0  0  0  0  0
   91.2085   97.2775  -43.4157 C   0  0  0  0  0  0  0  0  0  0  0  0
   91.7580   97.0423  -41.1427 C   0  0  0  0  0  0  0  0  0  0  0  0
   91.9318   95.6894  -41.3454 C   0  0  0  0  0  0  0  0  0  0  0  0
   93.6885   92.3673  -42.2963 C   0  0  0  0  0  0  0  0  0  0  0  0
   91.1948   90.6628  -47.2970 C   0  0  0  0  0  0  0  0  0  0  0  0
   91.1274   90.0190  -48.4433 O   0  0  0  0  0  0  0  0  0  0  0  0
   91.0257   90.8453  -49.4412 N   0  0  0  0  0  0  0  0  0  0  0  0
   91.1855   99.3314  -42.0457 C   0  0  0  0  0  0  0  0  0  0  0  0
   89.8114  101.1265  -41.2715 C   0  0  0  0  0  0  0  0  0  0  0  0
  4  1  1  0
  1  6  1  0
  1  9  1  0
 22  2  1  0
  2 23  1  0
  3  4  2  0
 14  3  1  0
  4  5  1  0
  5  7  1  0
  5 12  2  0
  7  6  2  0
  6 17  1  0
  7 15  1  0
 15  8  2  0
  8 16  1  0
  8 22  1  0
  9 18  1  0
 10 11  1  0
 10 14  1  0
 10 19  2  0
 11 21  2  0
 12 13  1  0
 13 14  2  0
 16 17  2  0
 19 20  1  0
 20 21  1  0
M  CHG  1   2   1
M  END
$$$$
