
     RDKit          3D

 23 26  0  0  0  0  0  0  0  0999 V2000
   91.5529   93.4134  -43.3739 N   0  0  0  0  0  0  0  0  0  0  0  0
   91.6059   91.4567  -49.4391 N   0  0  0  0  0  4  0  0  0  0  0  0
   91.2145   95.7790  -42.6027 C   0  0  0  0  0  0  0  0  0  0  0  0
   91.2205   94.7153  -43.4708 C   0  0  0  0  0  0  0  0  0  0  0  0
   90.8010   94.9494  -44.7696 C   0  0  0  0  0  0  0  0  0  0  0  0
   91.3555   92.8267  -44.5668 C   0  0  0  0  0  0  0  0  0  0  0  0
   90.8819   93.7596  -45.4747 C   0  0  0  0  0  0  0  0  0  0  0  0
   90.7868   92.0744  -47.2182 C   0  0  0  0  0  0  0  0  0  0  0  0
   92.0398   92.7710  -42.1755 C   0  0  0  0  0  0  0  0  0  0  0  0
   90.8167   98.1373  -42.0453 C   0  0  0  0  0  0  0  0  0  0  0  0
   90.5269   99.4521  -42.2935 C   0  0  0  0  0  0  0  0  0  0  0  0
   90.3899   96.1919  -45.1953 C   0  0  0  0  0  0  0  0  0  0  0  0
   90.3889   97.2479  -44.3164 C   0  0  0  0  0  0  0  0  0  0  0  0
   90.8045   97.0491  -43.0017 C   0  0  0  0  0  0  0  0  0  0  0  0
   90.6107   93.3652  -46.7686 C   0  0  0  0  0  0  0  0  0  0  0  0
   91.2584   91.1535  -46.3080 C   0  0  0  0  0  0  0  0  0  0  0  0
   91.5358   91.5263  -45.0096 C   0  0  0  0  0  0  0  0  0  0  0  0
   93.5239   92.9259  -41.9892 C   0  0  0  0  0  0  0  0  0  0  0  0
   91.1209   98.0488  -40.7158 C   0  0  0  0  0  0  0  0  0  0  0  0
   91.0153   99.2568  -40.2032 O   0  0  0  0  0  0  0  0  0  0  0  0
   90.6640  100.1219  -41.1072 N   0  0  0  0  0  0  0  0  0  0  0  0
   90.4639   91.7508  -48.6307 C   0  0  0  0  0  0  0  0  0  0  0  0
   91.2476   91.2061  -50.8214 C   0  0  0  0  0  0  0  0  0  0  0  0
  4  1  1  0
  1  6  1  0
  1  9  1  0
 22  2  1  0
  2 23  1  0
  3  4  2  0
 14  3  1  0
  4  5  1  0
  5  7  1  0
  5 12  2  0
  7  6  2  0
  6 17  1  0
  7 15  1  0
 15  8  2  0
  8 16  1  0
  8 22  1  0
  9 18  1  0
 10 11  1  0
 10 14  1  0
 10 19  2  0
 11 21  2  0
 12 13  1  0
 13 14  2  0
 16 17  2  0
 19 20  1  0
 20 21  1  0
M  CHG  1   2   1
M  END
$$$$
