
     RDKit          3D

 23 26  0  0  0  0  0  0  0  0999 V2000
   91.8718   93.2993  -43.6237 N   0  0  0  0  0  0  0  0  0  0  0  0
   89.5096   91.1062  -49.0898 N   0  0  0  0  0  4  0  0  0  0  0  0
   91.4873   95.6534  -42.8392 C   0  0  0  0  0  0  0  0  0  0  0  0
   91.5143   94.5950  -43.7134 C   0  0  0  0  0  0  0  0  0  0  0  0
   91.0912   94.8284  -45.0111 C   0  0  0  0  0  0  0  0  0  0  0  0
   91.6865   92.7157  -44.8202 C   0  0  0  0  0  0  0  0  0  0  0  0
   91.1955   93.6446  -45.7230 C   0  0  0  0  0  0  0  0  0  0  0  0
   91.1340   91.9679  -47.4763 C   0  0  0  0  0  0  0  0  0  0  0  0
   92.3702   92.6594  -42.4287 C   0  0  0  0  0  0  0  0  0  0  0  0
   91.0437   98.0003  -42.2686 C   0  0  0  0  0  0  0  0  0  0  0  0
   91.2182   97.8970  -40.9147 C   0  0  0  0  0  0  0  0  0  0  0  0
   90.6565   96.0653  -45.4300 C   0  0  0  0  0  0  0  0  0  0  0  0
   90.6345   97.1159  -44.5451 C   0  0  0  0  0  0  0  0  0  0  0  0
   91.0531   96.9177  -43.2313 C   0  0  0  0  0  0  0  0  0  0  0  0
   90.9328   93.2525  -47.0194 C   0  0  0  0  0  0  0  0  0  0  0  0
   91.6227   91.0510  -46.5710 C   0  0  0  0  0  0  0  0  0  0  0  0
   91.8921   91.4216  -45.2703 C   0  0  0  0  0  0  0  0  0  0  0  0
   93.8585   92.7999  -42.2660 C   0  0  0  0  0  0  0  0  0  0  0  0
   90.8585   99.3274  -42.5382 C   0  0  0  0  0  0  0  0  0  0  0  0
   90.9209   99.9771  -41.3949 O   0  0  0  0  0  0  0  0  0  0  0  0
   91.1335   99.1643  -40.4034 N   0  0  0  0  0  0  0  0  0  0  0  0
   90.8183   91.6462  -48.8908 C   0  0  0  0  0  0  0  0  0  0  0  0
   89.2250   90.8643  -50.4907 C   0  0  0  0  0  0  0  0  0  0  0  0
  4  1  1  0
  1  6  1  0
  1  9  1  0
 22  2  1  0
  2 23  1  0
  3  4  2  0
 14  3  1  0
  4  5  1  0
  5  7  1  0
  5 12  2  0
  7  6  2  0
  6 17  1  0
  7 15  1  0
 15  8  2  0
  8 16  1  0
  8 22  1  0
  9 18  1  0
 10 11  1  0
 10 14  1  0
 10 19  2  0
 11 21  2  0
 12 13  1  0
 13 14  2  0
 16 17  2  0
 19 20  1  0
 20 21  1  0
M  CHG  1   2   1
M  END
$$$$
