
     RDKit          3D

 23 26  0  0  0  0  0  0  0  0999 V2000
   91.5870   93.0089  -43.5334 N   0  0  0  0  0  0  0  0  0  0  0  0
   89.3197   91.0552  -49.1179 N   0  0  0  0  0  4  0  0  0  0  0  0
   91.2267   95.3615  -42.7331 C   0  0  0  0  0  0  0  0  0  0  0  0
   91.2599   94.3130  -43.6188 C   0  0  0  0  0  0  0  0  0  0  0  0
   90.8841   94.5703  -44.9266 C   0  0  0  0  0  0  0  0  0  0  0  0
   91.4285   92.4432  -44.7422 C   0  0  0  0  0  0  0  0  0  0  0  0
   90.9867   93.3927  -45.6491 C   0  0  0  0  0  0  0  0  0  0  0  0
   90.9470   91.7380  -47.4237 C   0  0  0  0  0  0  0  0  0  0  0  0
   92.0328   92.3449  -42.3308 C   0  0  0  0  0  0  0  0  0  0  0  0
   90.8141   97.7107  -42.1486 C   0  0  0  0  0  0  0  0  0  0  0  0
   91.1950   97.6331  -40.8359 C   0  0  0  0  0  0  0  0  0  0  0  0
   90.4893   95.8208  -45.3442 C   0  0  0  0  0  0  0  0  0  0  0  0
   90.4606   96.8615  -44.4476 C   0  0  0  0  0  0  0  0  0  0  0  0
   90.8320   96.6392  -43.1235 C   0  0  0  0  0  0  0  0  0  0  0  0
   90.7581   93.0212  -46.9579 C   0  0  0  0  0  0  0  0  0  0  0  0
   91.3868   90.8005  -46.5144 C   0  0  0  0  0  0  0  0  0  0  0  0
   91.6214   91.1504  -45.2013 C   0  0  0  0  0  0  0  0  0  0  0  0
   93.4938   92.5621  -42.0488 C   0  0  0  0  0  0  0  0  0  0  0  0
   90.4122   98.9993  -42.3629 C   0  0  0  0  0  0  0  0  0  0  0  0
   90.5499   99.6520  -41.2279 O   0  0  0  0  0  0  0  0  0  0  0  0
   91.0128   98.8769  -40.2931 N   0  0  0  0  0  0  0  0  0  0  0  0
   90.6708   91.4394  -48.8515 C   0  0  0  0  0  0  0  0  0  0  0  0
   89.0811   90.8395  -50.5317 C   0  0  0  0  0  0  0  0  0  0  0  0
  4  1  1  0
  1  6  1  0
  1  9  1  0
 22  2  1  0
  2 23  1  0
  3  4  2  0
 14  3  1  0
  4  5  1  0
  5  7  1  0
  5 12  2  0
  7  6  2  0
  6 17  1  0
  7 15  1  0
 15  8  2  0
  8 16  1  0
  8 22  1  0
  9 18  1  0
 10 11  1  0
 10 14  1  0
 10 19  2  0
 11 21  2  0
 12 13  1  0
 13 14  2  0
 16 17  2  0
 19 20  1  0
 20 21  1  0
M  CHG  1   2   1
M  END
$$$$
