
     RDKit          3D

 23 26  0  0  0  0  0  0  0  0999 V2000
   91.4294   93.5906  -42.7240 N   0  0  0  0  0  0  0  0  0  0  0  0
   91.6071   99.7975  -41.2080 N   0  0  0  0  0  4  0  0  0  0  0  0
   91.0283   92.5505  -44.9740 C   0  0  0  0  0  0  0  0  0  0  0  0
   91.0741   93.5392  -44.0224 C   0  0  0  0  0  0  0  0  0  0  0  0
   90.6796   94.8106  -44.4039 C   0  0  0  0  0  0  0  0  0  0  0  0
   91.2705   94.8498  -42.2817 C   0  0  0  0  0  0  0  0  0  0  0  0
   90.7996   95.6509  -43.3090 C   0  0  0  0  0  0  0  0  0  0  0  0
   90.7779   97.5858  -41.8446 C   0  0  0  0  0  0  0  0  0  0  0  0
   91.9017   92.4662  -41.9504 C   0  0  0  0  0  0  0  0  0  0  0  0
   90.5748   91.7254  -47.2420 C   0  0  0  0  0  0  0  0  0  0  0  0
   90.4705   91.8429  -48.6020 C   0  0  0  0  0  0  0  0  0  0  0  0
   90.2546   95.0946  -45.6818 C   0  0  0  0  0  0  0  0  0  0  0  0
   90.2136   94.0960  -46.6244 C   0  0  0  0  0  0  0  0  0  0  0  0
   90.6033   92.8047  -46.2761 C   0  0  0  0  0  0  0  0  0  0  0  0
   90.5661   96.9892  -43.0687 C   0  0  0  0  0  0  0  0  0  0  0  0
   91.2463   96.7809  -40.8288 C   0  0  0  0  0  0  0  0  0  0  0  0
   91.4864   95.4406  -41.0473 C   0  0  0  0  0  0  0  0  0  0  0  0
   93.4021   92.3846  -41.8911 C   0  0  0  0  0  0  0  0  0  0  0  0
   90.6474   90.3879  -46.9702 C   0  0  0  0  0  0  0  0  0  0  0  0
   90.5886   89.7458  -48.1180 O   0  0  0  0  0  0  0  0  0  0  0  0
   90.4829   90.5733  -49.1146 N   0  0  0  0  0  0  0  0  0  0  0  0
   90.4972   99.0353  -41.6888 C   0  0  0  0  0  0  0  0  0  0  0  0
   91.3031  101.2127  -41.1236 C   0  0  0  0  0  0  0  0  0  0  0  0
  4  1  1  0
  1  6  1  0
  1  9  1  0
 22  2  1  0
  2 23  1  0
  3  4  2  0
 14  3  1  0
  4  5  1  0
  5  7  1  0
  5 12  2  0
  7  6  2  0
  6 17  1  0
  7 15  1  0
 15  8  2  0
  8 16  1  0
  8 22  1  0
  9 18  1  0
 10 11  1  0
 10 14  1  0
 10 19  2  0
 11 21  2  0
 12 13  1  0
 13 14  2  0
 16 17  2  0
 19 20  1  0
 20 21  1  0
M  CHG  1   2   1
M  END
$$$$
