
     RDKit          3D

 23 26  0  0  0  0  0  0  0  0999 V2000
   91.5325   92.1340  -45.4802 N   0  0  0  0  0  0  0  0  0  0  0  0
   88.0743   91.8899  -50.8157 N   0  0  0  0  0  4  0  0  0  0  0  0
   91.5727   94.0827  -43.8971 C   0  0  0  0  0  0  0  0  0  0  0  0
   91.3191   93.3954  -45.0584 C   0  0  0  0  0  0  0  0  0  0  0  0
   90.7014   94.0868  -46.0870 C   0  0  0  0  0  0  0  0  0  0  0  0
   91.0696   92.0138  -46.7363 C   0  0  0  0  0  0  0  0  0  0  0  0
   90.5375   93.2218  -47.1566 C   0  0  0  0  0  0  0  0  0  0  0  0
   89.9681   92.2666  -49.3135 C   0  0  0  0  0  0  0  0  0  0  0  0
   92.1578   91.0943  -44.6967 C   0  0  0  0  0  0  0  0  0  0  0  0
   91.5161   96.1020  -42.5009 C   0  0  0  0  0  0  0  0  0  0  0  0
   91.1423   97.3715  -42.1505 C   0  0  0  0  0  0  0  0  0  0  0  0
   90.3468   95.4117  -45.9715 C   0  0  0  0  0  0  0  0  0  0  0  0
   90.6064   96.0876  -44.8040 C   0  0  0  0  0  0  0  0  0  0  0  0
   91.2266   95.4238  -43.7480 C   0  0  0  0  0  0  0  0  0  0  0  0
   90.0036   93.3195  -48.4249 C   0  0  0  0  0  0  0  0  0  0  0  0
   90.4997   91.0691  -48.8865 C   0  0  0  0  0  0  0  0  0  0  0  0
   91.0385   90.9495  -47.6227 C   0  0  0  0  0  0  0  0  0  0  0  0
   93.6510   91.0489  -44.8685 C   0  0  0  0  0  0  0  0  0  0  0  0
   92.2178   95.5957  -41.4430 C   0  0  0  0  0  0  0  0  0  0  0  0
   92.2561   96.5247  -40.5110 O   0  0  0  0  0  0  0  0  0  0  0  0
   91.6284   97.5975  -40.8906 N   0  0  0  0  0  0  0  0  0  0  0  0
   89.3695   92.4740  -50.6562 C   0  0  0  0  0  0  0  0  0  0  0  0
   87.5246   92.1307  -52.1355 C   0  0  0  0  0  0  0  0  0  0  0  0
  4  1  1  0
  1  6  1  0
  1  9  1  0
 22  2  1  0
  2 23  1  0
  3  4  2  0
 14  3  1  0
  4  5  1  0
  5  7  1  0
  5 12  2  0
  7  6  2  0
  6 17  1  0
  7 15  1  0
 15  8  2  0
  8 16  1  0
  8 22  1  0
  9 18  1  0
 10 11  1  0
 10 14  1  0
 10 19  2  0
 11 21  2  0
 12 13  1  0
 13 14  2  0
 16 17  2  0
 19 20  1  0
 20 21  1  0
M  CHG  1   2   1
M  END
$$$$
