
     RDKit          3D

 23 26  0  0  0  0  0  0  0  0999 V2000
   91.7174   93.7776  -43.0395 N   0  0  0  0  0  0  0  0  0  0  0  0
   89.8612   99.6578  -41.5023 N   0  0  0  0  0  4  0  0  0  0  0  0
   91.1331   92.6710  -45.2165 C   0  0  0  0  0  0  0  0  0  0  0  0
   91.2786   93.6921  -44.3103 C   0  0  0  0  0  0  0  0  0  0  0  0
   90.9120   94.9638  -44.7178 C   0  0  0  0  0  0  0  0  0  0  0  0
   91.6374   95.0582  -42.6395 C   0  0  0  0  0  0  0  0  0  0  0  0
   91.1347   95.8391  -43.6674 C   0  0  0  0  0  0  0  0  0  0  0  0
   91.2835   97.8272  -42.2838 C   0  0  0  0  0  0  0  0  0  0  0  0
   92.1925   92.6641  -42.2518 C   0  0  0  0  0  0  0  0  0  0  0  0
   90.5039   91.7806  -47.4169 C   0  0  0  0  0  0  0  0  0  0  0  0
   90.3388   91.8506  -48.7741 C   0  0  0  0  0  0  0  0  0  0  0  0
   90.4185   95.2171  -45.9774 C   0  0  0  0  0  0  0  0  0  0  0  0
   90.2778   94.1861  -46.8745 C   0  0  0  0  0  0  0  0  0  0  0  0
   90.6368   92.8936  -46.4990 C   0  0  0  0  0  0  0  0  0  0  0  0
   90.9707   97.1942  -43.4674 C   0  0  0  0  0  0  0  0  0  0  0  0
   91.7828   97.0422  -41.2672 C   0  0  0  0  0  0  0  0  0  0  0  0
   91.9547   95.6856  -41.4457 C   0  0  0  0  0  0  0  0  0  0  0  0
   91.0833   91.9182  -41.5630 C   0  0  0  0  0  0  0  0  0  0  0  0
   90.5195   90.4527  -47.0936 C   0  0  0  0  0  0  0  0  0  0  0  0
   90.3703   89.7707  -48.2097 O   0  0  0  0  0  0  0  0  0  0  0  0
   90.2591   90.5632  -49.2336 N   0  0  0  0  0  0  0  0  0  0  0  0
   91.0715   99.2922  -42.1698 C   0  0  0  0  0  0  0  0  0  0  0  0
   89.7563  101.0905  -41.3058 C   0  0  0  0  0  0  0  0  0  0  0  0
  4  1  1  0
  1  6  1  0
  1  9  1  0
 22  2  1  0
  2 23  1  0
  3  4  2  0
 14  3  1  0
  4  5  1  0
  5  7  1  0
  5 12  2  0
  7  6  2  0
  6 17  1  0
  7 15  1  0
 15  8  2  0
  8 16  1  0
  8 22  1  0
  9 18  1  0
 10 11  1  0
 10 14  1  0
 10 19  2  0
 11 21  2  0
 12 13  1  0
 13 14  2  0
 16 17  2  0
 19 20  1  0
 20 21  1  0
M  CHG  1   2   1
M  END
$$$$
