
     RDKit          3D

 23 26  0  0  0  0  0  0  0  0999 V2000
   91.5106   92.6546  -44.9242 N   0  0  0  0  0  0  0  0  0  0  0  0
   90.0313   91.8666  -51.0801 N   0  0  0  0  0  4  0  0  0  0  0  0
   91.2148   94.7503  -43.5731 C   0  0  0  0  0  0  0  0  0  0  0  0
   91.0628   93.8914  -44.6333 C   0  0  0  0  0  0  0  0  0  0  0  0
   90.2814   94.3188  -45.6937 C   0  0  0  0  0  0  0  0  0  0  0  0
   91.0360   92.2950  -46.1291 C   0  0  0  0  0  0  0  0  0  0  0  0
   90.2564   93.3154  -46.6487 C   0  0  0  0  0  0  0  0  0  0  0  0
   89.8131   92.0134  -48.6479 C   0  0  0  0  0  0  0  0  0  0  0  0
   92.3607   91.8601  -44.0686 C   0  0  0  0  0  0  0  0  0  0  0  0
   90.8032   96.8733  -42.4094 C   0  0  0  0  0  0  0  0  0  0  0  0
   90.4178   98.1821  -42.2974 C   0  0  0  0  0  0  0  0  0  0  0  0
   89.6716   95.5525  -45.7054 C   0  0  0  0  0  0  0  0  0  0  0  0
   89.8319   96.4025  -44.6380 C   0  0  0  0  0  0  0  0  0  0  0  0
   90.6112   96.0057  -43.5537 C   0  0  0  0  0  0  0  0  0  0  0  0
   89.6680   93.1524  -47.8858 C   0  0  0  0  0  0  0  0  0  0  0  0
   90.5904   91.0038  -48.1228 C   0  0  0  0  0  0  0  0  0  0  0  0
   91.1878   91.1459  -46.8881 C   0  0  0  0  0  0  0  0  0  0  0  0
   91.5862   90.9688  -43.1374 C   0  0  0  0  0  0  0  0  0  0  0  0
   91.4065   96.5416  -41.2288 C   0  0  0  0  0  0  0  0  0  0  0  0
   91.3781   97.6067  -40.4555 O   0  0  0  0  0  0  0  0  0  0  0  0
   90.7988   98.6053  -41.0522 N   0  0  0  0  0  0  0  0  0  0  0  0
   89.1365   91.9355  -49.9671 C   0  0  0  0  0  0  0  0  0  0  0  0
   89.3263   91.8024  -52.3454 C   0  0  0  0  0  0  0  0  0  0  0  0
  4  1  1  0
  1  6  1  0
  1  9  1  0
 22  2  1  0
  2 23  1  0
  3  4  2  0
 14  3  1  0
  4  5  1  0
  5  7  1  0
  5 12  2  0
  7  6  2  0
  6 17  1  0
  7 15  1  0
 15  8  2  0
  8 16  1  0
  8 22  1  0
  9 18  1  0
 10 11  1  0
 10 14  1  0
 10 19  2  0
 11 21  2  0
 12 13  1  0
 13 14  2  0
 16 17  2  0
 19 20  1  0
 20 21  1  0
M  CHG  1   2   1
M  END
$$$$
