
     RDKit          3D

 23 26  0  0  0  0  0  0  0  0999 V2000
   91.8643   93.1598  -44.0111 N   0  0  0  0  0  0  0  0  0  0  0  0
   89.2790   90.6519  -49.2772 N   0  0  0  0  0  4  0  0  0  0  0  0
   91.4010   95.4313  -43.0462 C   0  0  0  0  0  0  0  0  0  0  0  0
   91.3973   94.4230  -43.9781 C   0  0  0  0  0  0  0  0  0  0  0  0
   90.7917   94.6823  -45.1962 C   0  0  0  0  0  0  0  0  0  0  0  0
   91.5714   92.6216  -45.2073 C   0  0  0  0  0  0  0  0  0  0  0  0
   90.8953   93.5478  -45.9845 C   0  0  0  0  0  0  0  0  0  0  0  0
   90.7383   91.9595  -47.8125 C   0  0  0  0  0  0  0  0  0  0  0  0
   92.5630   92.5076  -42.9284 C   0  0  0  0  0  0  0  0  0  0  0  0
   90.8520   97.7009  -42.2860 C   0  0  0  0  0  0  0  0  0  0  0  0
   90.3763   98.9798  -42.3964 C   0  0  0  0  0  0  0  0  0  0  0  0
   90.2101   95.8962  -45.4829 C   0  0  0  0  0  0  0  0  0  0  0  0
   90.2208   96.8967  -44.5414 C   0  0  0  0  0  0  0  0  0  0  0  0
   90.8212   96.6712  -43.3048 C   0  0  0  0  0  0  0  0  0  0  0  0
   90.4978   93.1983  -47.2585 C   0  0  0  0  0  0  0  0  0  0  0  0
   91.4115   91.0449  -47.0319 C   0  0  0  0  0  0  0  0  0  0  0  0
   91.8179   91.3734  -45.7558 C   0  0  0  0  0  0  0  0  0  0  0  0
   91.6428   91.7598  -42.0035 C   0  0  0  0  0  0  0  0  0  0  0  0
   91.3635   97.5821  -41.0242 C   0  0  0  0  0  0  0  0  0  0  0  0
   91.1970   98.7388  -40.4179 O   0  0  0  0  0  0  0  0  0  0  0  0
   90.6135   99.5988  -41.1983 N   0  0  0  0  0  0  0  0  0  0  0  0
   90.2675   91.6814  -49.1928 C   0  0  0  0  0  0  0  0  0  0  0  0
   88.7820   90.4803  -50.6284 C   0  0  0  0  0  0  0  0  0  0  0  0
  4  1  1  0
  1  6  1  0
  1  9  1  0
 22  2  1  0
  2 23  1  0
  3  4  2  0
 14  3  1  0
  4  5  1  0
  5  7  1  0
  5 12  2  0
  7  6  2  0
  6 17  1  0
  7 15  1  0
 15  8  2  0
  8 16  1  0
  8 22  1  0
  9 18  1  0
 10 11  1  0
 10 14  1  0
 10 19  2  0
 11 21  2  0
 12 13  1  0
 13 14  2  0
 16 17  2  0
 19 20  1  0
 20 21  1  0
M  CHG  1   2   1
M  END
$$$$
