
     RDKit          3D

 23 26  0  0  0  0  0  0  0  0999 V2000
   91.5985   93.1588  -43.7117 N   0  0  0  0  0  0  0  0  0  0  0  0
   88.8801   90.6689  -48.8667 N   0  0  0  0  0  4  0  0  0  0  0  0
   91.1305   95.5199  -42.9964 C   0  0  0  0  0  0  0  0  0  0  0  0
   91.1513   94.4246  -43.8241 C   0  0  0  0  0  0  0  0  0  0  0  0
   90.6042   94.5695  -45.0880 C   0  0  0  0  0  0  0  0  0  0  0  0
   91.3497   92.5086  -44.8613 C   0  0  0  0  0  0  0  0  0  0  0  0
   90.7238   93.3615  -45.7556 C   0  0  0  0  0  0  0  0  0  0  0  0
   90.6214   91.6024  -47.4241 C   0  0  0  0  0  0  0  0  0  0  0  0
   92.2380   92.6084  -42.5396 C   0  0  0  0  0  0  0  0  0  0  0  0
   90.5859   97.8600  -42.4885 C   0  0  0  0  0  0  0  0  0  0  0  0
   91.1831   97.9173  -41.2580 C   0  0  0  0  0  0  0  0  0  0  0  0
   90.0558   95.7561  -45.5186 C   0  0  0  0  0  0  0  0  0  0  0  0
   90.0415   96.8445  -44.6804 C   0  0  0  0  0  0  0  0  0  0  0  0
   90.5831   96.7351  -43.4016 C   0  0  0  0  0  0  0  0  0  0  0  0
   90.3771   92.8927  -47.0059 C   0  0  0  0  0  0  0  0  0  0  0  0
   91.2445   90.7614  -46.5277 C   0  0  0  0  0  0  0  0  0  0  0  0
   91.5996   91.2095  -45.2729 C   0  0  0  0  0  0  0  0  0  0  0  0
   91.7786   91.2121  -42.2226 C   0  0  0  0  0  0  0  0  0  0  0  0
   89.9907   99.0736  -42.6905 C   0  0  0  0  0  0  0  0  0  0  0  0
   90.2262   99.8131  -41.6271 O   0  0  0  0  0  0  0  0  0  0  0  0
   90.9322   99.1639  -40.7502 N   0  0  0  0  0  0  0  0  0  0  0  0
   90.2073   91.1949  -48.7903 C   0  0  0  0  0  0  0  0  0  0  0  0
   88.4805   90.3887  -50.2320 C   0  0  0  0  0  0  0  0  0  0  0  0
  4  1  1  0
  1  6  1  0
  1  9  1  0
 22  2  1  0
  2 23  1  0
  3  4  2  0
 14  3  1  0
  4  5  1  0
  5  7  1  0
  5 12  2  0
  7  6  2  0
  6 17  1  0
  7 15  1  0
 15  8  2  0
  8 16  1  0
  8 22  1  0
  9 18  1  0
 10 11  1  0
 10 14  1  0
 10 19  2  0
 11 21  2  0
 12 13  1  0
 13 14  2  0
 16 17  2  0
 19 20  1  0
 20 21  1  0
M  CHG  1   2   1
M  END
$$$$
