
     RDKit          3D

 23 26  0  0  0  0  0  0  0  0999 V2000
   91.4800   93.6632  -42.8925 N   0  0  0  0  0  0  0  0  0  0  0  0
   89.4392   99.5193  -41.5507 N   0  0  0  0  0  4  0  0  0  0  0  0
   91.1467   92.6192  -45.1517 C   0  0  0  0  0  0  0  0  0  0  0  0
   91.1909   93.6149  -44.2073 C   0  0  0  0  0  0  0  0  0  0  0  0
   90.8796   94.8996  -44.6197 C   0  0  0  0  0  0  0  0  0  0  0  0
   91.3600   94.9334  -42.4697 C   0  0  0  0  0  0  0  0  0  0  0  0
   90.9831   95.7451  -43.5271 C   0  0  0  0  0  0  0  0  0  0  0  0
   90.9796   97.6946  -42.0821 C   0  0  0  0  0  0  0  0  0  0  0  0
   91.8557   92.5258  -42.0856 C   0  0  0  0  0  0  0  0  0  0  0  0
   90.7725   91.7922  -47.4335 C   0  0  0  0  0  0  0  0  0  0  0  0
   90.7367   91.8998  -48.7978 C   0  0  0  0  0  0  0  0  0  0  0  0
   90.5364   95.1899  -45.9206 C   0  0  0  0  0  0  0  0  0  0  0  0
   90.4960   94.1842  -46.8556 C   0  0  0  0  0  0  0  0  0  0  0  0
   90.8033   92.8795  -46.4764 C   0  0  0  0  0  0  0  0  0  0  0  0
   90.8031   97.0956  -43.3107 C   0  0  0  0  0  0  0  0  0  0  0  0
   91.3543   96.8792  -41.0363 C   0  0  0  0  0  0  0  0  0  0  0  0
   91.5397   95.5266  -41.2306 C   0  0  0  0  0  0  0  0  0  0  0  0
   93.3373   92.4436  -41.8425 C   0  0  0  0  0  0  0  0  0  0  0  0
   90.7740   90.4558  -47.1472 C   0  0  0  0  0  0  0  0  0  0  0  0
   90.7405   89.8048  -48.2910 O   0  0  0  0  0  0  0  0  0  0  0  0
   90.7174   90.6256  -49.2984 N   0  0  0  0  0  0  0  0  0  0  0  0
   90.7624   99.1576  -41.9535 C   0  0  0  0  0  0  0  0  0  0  0  0
   89.2927  100.9511  -41.3762 C   0  0  0  0  0  0  0  0  0  0  0  0
  4  1  1  0
  1  6  1  0
  1  9  1  0
 22  2  1  0
  2 23  1  0
  3  4  2  0
 14  3  1  0
  4  5  1  0
  5  7  1  0
  5 12  2  0
  7  6  2  0
  6 17  1  0
  7 15  1  0
 15  8  2  0
  8 16  1  0
  8 22  1  0
  9 18  1  0
 10 11  1  0
 10 14  1  0
 10 19  2  0
 11 21  2  0
 12 13  1  0
 13 14  2  0
 16 17  2  0
 19 20  1  0
 20 21  1  0
M  CHG  1   2   1
M  END
$$$$
