
     RDKit          3D

 25 28  0  0  0  0  0  0  0  0999 V2000
  -21.2181   19.1961  -12.2739 C   0  0  0  0  0  0  0  0  0  0  0  0
  -19.1084   18.1344  -13.1333 C   0  0  0  0  0  0  0  0  0  0  0  0
  -18.1647   17.1509  -13.0874 C   0  0  0  0  0  0  0  0  0  0  0  0
  -18.3125   15.8122  -12.6257 C   0  0  0  0  0  0  0  0  0  0  0  0
  -22.5624   16.8178  -12.4720 C   0  0  0  0  0  0  0  0  0  0  0  0
  -24.5540   18.0929  -11.5959 C   0  0  0  0  0  0  0  0  0  0  0  0
  -24.6488   19.4318  -11.2426 C   0  0  0  0  0  0  0  0  0  0  0  0
  -23.1259   21.4025  -11.2012 C   0  0  0  0  0  0  0  0  0  0  0  0
  -23.8985   21.8367  -10.0136 C   0  0  0  0  0  0  0  0  0  0  0  0
  -23.1956   21.9321   -8.8108 C   0  0  0  0  0  0  0  0  0  0  0  0
  -23.8299   22.3293   -7.6526 C   0  0  0  0  0  0  0  0  0  0  0  0
  -25.1649   22.6239   -7.7282 C   0  0  0  0  0  0  0  0  0  0  0  0
  -25.2185   22.1492   -9.9905 C   0  0  0  0  0  0  0  0  0  0  0  0
  -22.5704   19.1097  -11.9116 C   0  0  0  0  0  0  0  0  0  0  0  0
  -20.5126   18.1198  -12.7361 C   0  0  0  0  0  0  0  0  0  0  0  0
  -16.9404   17.6407  -13.5820 C   0  0  0  0  0  0  0  0  0  0  0  0
  -21.2377   16.9294  -12.8205 C   0  0  0  0  0  0  0  0  0  0  0  0
  -23.2489   17.9159  -12.0099 C   0  0  0  0  0  0  0  0  0  0  0  0
  -23.4443   20.0077  -11.4446 N   0  0  0  0  0  0  0  0  0  0  0  0
  -25.8530   22.5351   -8.8851 N   0  0  0  0  0  0  0  0  0  0  0  0
  -18.4620   19.2151  -13.6526 N   0  0  0  0  0  0  0  0  0  0  0  0
  -17.2059   18.9154  -13.9082 N   0  0  0  0  0  0  0  0  0  0  0  0
  -15.7254   16.9237  -13.6950 N   0  0  0  0  0  0  0  0  0  0  0  0
  -18.4514   14.7344  -12.2495 N   0  0  0  0  0  0  0  0  0  0  0  0
  -25.8325   16.9013  -11.5232 Cl  0  0  0  0  0  0  0  0  0  0  0  0
 14  1  2  0
  1 15  1  0
  2  3  2  0
 15  2  1  0
  2 21  1  0
  3  4  1  0
  3 16  1  0
  4 24  3  0
  5 17  1  0
 18  5  2  0
  6  7  2  0
 18  6  1  0
  6 25  1  0
  7 19  1  0
  8  9  1  0
 19  8  1  0
  9 10  2  0
  9 13  1  0
 10 11  1  0
 11 12  2  0
 20 12  1  0
 13 20  2  0
 14 18  1  0
 14 19  1  0
 15 17  2  0
 16 22  2  0
 16 23  1  0
 21 22  1  0
M  END
$$$$
