
     RDKit          3D

 25 28  0  0  0  0  0  0  0  0999 V2000
  -11.5593    8.4105  -26.8313 C   0  0  0  0  0  0  0  0  0  0  0  0
  -12.2453    9.7024  -24.7875 C   0  0  0  0  0  0  0  0  0  0  0  0
  -13.1420   10.2492  -23.9175 C   0  0  0  0  0  0  0  0  0  0  0  0
  -14.5256   10.5094  -24.1298 C   0  0  0  0  0  0  0  0  0  0  0  0
  -13.7995    9.2363  -28.1740 C   0  0  0  0  0  0  0  0  0  0  0  0
  -12.9140    7.8685  -30.0987 C   0  0  0  0  0  0  0  0  0  0  0  0
  -11.7518    7.1131  -30.1732 C   0  0  0  0  0  0  0  0  0  0  0  0
   -9.8523    6.5647  -28.6582 C   0  0  0  0  0  0  0  0  0  0  0  0
  -10.1704    5.2131  -28.1407 C   0  0  0  0  0  0  0  0  0  0  0  0
   -9.1072    4.4811  -27.6081 C   0  0  0  0  0  0  0  0  0  0  0  0
   -9.3068    3.2141  -27.1015 C   0  0  0  0  0  0  0  0  0  0  0  0
  -10.5779    2.7068  -27.1411 C   0  0  0  0  0  0  0  0  0  0  0  0
  -11.3942    4.6275  -28.1368 C   0  0  0  0  0  0  0  0  0  0  0  0
  -11.7927    7.9957  -28.1508 C   0  0  0  0  0  0  0  0  0  0  0  0
  -12.4200    9.2326  -26.1580 C   0  0  0  0  0  0  0  0  0  0  0  0
  -12.5027   10.5496  -22.6991 C   0  0  0  0  0  0  0  0  0  0  0  0
  -13.5473    9.6281  -26.8810 C   0  0  0  0  0  0  0  0  0  0  0  0
  -12.9175    8.4089  -28.8284 C   0  0  0  0  0  0  0  0  0  0  0  0
  -11.1074    7.2127  -28.9908 N   0  0  0  0  0  0  0  0  0  0  0  0
  -11.6118    3.4058  -27.6534 N   0  0  0  0  0  0  0  0  0  0  0  0
  -11.0684    9.6706  -24.1024 N   0  0  0  0  0  0  0  0  0  0  0  0
  -11.2315   10.1646  -22.8932 N   0  0  0  0  0  0  0  0  0  0  0  0
  -13.0966   11.1265  -21.5512 N   0  0  0  0  0  0  0  0  0  0  0  0
  -15.6425   10.7336  -24.2869 N   0  0  0  0  0  0  0  0  0  0  0  0
  -14.1065    8.0760  -31.3615 Cl  0  0  0  0  0  0  0  0  0  0  0  0
 14  1  2  0
  1 15  1  0
  2  3  2  0
 15  2  1  0
  2 21  1  0
  3  4  1  0
  3 16  1  0
  4 24  3  0
  5 17  1  0
 18  5  2  0
  6  7  2  0
 18  6  1  0
  6 25  1  0
  7 19  1  0
  8  9  1  0
 19  8  1  0
  9 10  2  0
  9 13  1  0
 10 11  1  0
 11 12  2  0
 20 12  1  0
 13 20  2  0
 14 18  1  0
 14 19  1  0
 15 17  2  0
 16 22  2  0
 16 23  1  0
 21 22  1  0
M  END
$$$$
