
     RDKit          3D

 25 28  0  0  0  0  0  0  0  0999 V2000
  -21.7584   18.9359  -11.3323 C   0  0  0  0  0  0  0  0  0  0  0  0
  -20.2309   17.7354  -12.9268 C   0  0  0  0  0  0  0  0  0  0  0  0
  -19.0087   17.5902  -12.3394 C   0  0  0  0  0  0  0  0  0  0  0  0
  -18.6780   17.7037  -10.9592 C   0  0  0  0  0  0  0  0  0  0  0  0
  -23.9385   17.6206  -12.3426 C   0  0  0  0  0  0  0  0  0  0  0  0
  -25.2728   18.9406  -10.6581 C   0  0  0  0  0  0  0  0  0  0  0  0
  -24.8314   19.8740   -9.7305 C   0  0  0  0  0  0  0  0  0  0  0  0
  -22.6475   20.8743   -9.0716 C   0  0  0  0  0  0  0  0  0  0  0  0
  -22.6813   22.2115   -9.7092 C   0  0  0  0  0  0  0  0  0  0  0  0
  -23.8578   22.9478   -9.5561 C   0  0  0  0  0  0  0  0  0  0  0  0
  -23.9818   24.2033  -10.1131 C   0  0  0  0  0  0  0  0  0  0  0  0
  -22.9148   24.6948  -10.8160 C   0  0  0  0  0  0  0  0  0  0  0  0
  -21.6778   22.7813  -10.4226 C   0  0  0  0  0  0  0  0  0  0  0  0
  -23.0406   19.1837  -10.8203 C   0  0  0  0  0  0  0  0  0  0  0  0
  -21.5325   18.0427  -12.3428 C   0  0  0  0  0  0  0  0  0  0  0  0
  -18.0406   17.2948  -13.3187 C   0  0  0  0  0  0  0  0  0  0  0  0
  -22.6719   17.3963  -12.8265 C   0  0  0  0  0  0  0  0  0  0  0  0
  -24.1383   18.5244  -11.3257 C   0  0  0  0  0  0  0  0  0  0  0  0
  -23.4923   19.9935   -9.8566 N   0  0  0  0  0  0  0  0  0  0  0  0
  -21.7737   23.9916  -10.9697 N   0  0  0  0  0  0  0  0  0  0  0  0
  -20.0073   17.5296  -14.2546 N   0  0  0  0  0  0  0  0  0  0  0  0
  -18.7335   17.2752  -14.4681 N   0  0  0  0  0  0  0  0  0  0  0  0
  -16.6590   17.0748  -13.1040 N   0  0  0  0  0  0  0  0  0  0  0  0
  -18.3937   17.8043   -9.8495 N   0  0  0  0  0  0  0  0  0  0  0  0
  -26.9234   18.4186  -10.9091 Cl  0  0  0  0  0  0  0  0  0  0  0  0
 14  1  2  0
  1 15  1  0
  2  3  2  0
 15  2  1  0
  2 21  1  0
  3  4  1  0
  3 16  1  0
  4 24  3  0
  5 17  1  0
 18  5  2  0
  6  7  2  0
 18  6  1  0
  6 25  1  0
  7 19  1  0
  8  9  1  0
 19  8  1  0
  9 10  2  0
  9 13  1  0
 10 11  1  0
 11 12  2  0
 20 12  1  0
 13 20  2  0
 14 18  1  0
 14 19  1  0
 15 17  2  0
 16 22  2  0
 16 23  1  0
 21 22  1  0
M  END
$$$$
