
     RDKit          3D

 25 28  0  0  0  0  0  0  0  0999 V2000
  -22.3400   19.4470  -10.5963 C   0  0  0  0  0  0  0  0  0  0  0  0
  -20.6159   18.1067  -11.8404 C   0  0  0  0  0  0  0  0  0  0  0  0
  -19.3350   18.0362  -12.3032 C   0  0  0  0  0  0  0  0  0  0  0  0
  -18.4973   19.1027  -12.7365 C   0  0  0  0  0  0  0  0  0  0  0  0
  -22.2934   21.3970  -12.5195 C   0  0  0  0  0  0  0  0  0  0  0  0
  -24.0216   22.5650  -11.1021 C   0  0  0  0  0  0  0  0  0  0  0  0
  -24.5826   22.1622   -9.8981 C   0  0  0  0  0  0  0  0  0  0  0  0
  -24.3582   20.2149   -8.3612 C   0  0  0  0  0  0  0  0  0  0  0  0
  -25.3723   19.1995   -8.7308 C   0  0  0  0  0  0  0  0  0  0  0  0
  -26.2277   19.5247   -9.7854 C   0  0  0  0  0  0  0  0  0  0  0  0
  -27.2023   18.6421  -10.2012 C   0  0  0  0  0  0  0  0  0  0  0  0
  -27.2970   17.4445   -9.5444 C   0  0  0  0  0  0  0  0  0  0  0  0
  -25.5421   17.9895   -8.1410 C   0  0  0  0  0  0  0  0  0  0  0  0
  -23.1564   20.5818  -10.4804 C   0  0  0  0  0  0  0  0  0  0  0  0
  -21.4942   19.2571  -11.6539 C   0  0  0  0  0  0  0  0  0  0  0  0
  -18.9016   16.6961  -12.3057 C   0  0  0  0  0  0  0  0  0  0  0  0
  -21.5037   20.2758  -12.6090 C   0  0  0  0  0  0  0  0  0  0  0  0
  -23.1354   21.5636  -11.4452 C   0  0  0  0  0  0  0  0  0  0  0  0
  -24.0415   20.9729   -9.5575 N   0  0  0  0  0  0  0  0  0  0  0  0
  -26.4756   17.1206   -8.5245 N   0  0  0  0  0  0  0  0  0  0  0  0
  -20.9590   16.8179  -11.5632 N   0  0  0  0  0  0  0  0  0  0  0  0
  -19.9562   16.0104  -11.8374 N   0  0  0  0  0  0  0  0  0  0  0  0
  -17.6344   16.2171  -12.7157 N   0  0  0  0  0  0  0  0  0  0  0  0
  -17.8273   19.9754  -13.0712 N   0  0  0  0  0  0  0  0  0  0  0  0
  -24.3784   24.0356  -11.9795 Cl  0  0  0  0  0  0  0  0  0  0  0  0
 14  1  2  0
  1 15  1  0
  2  3  2  0
 15  2  1  0
  2 21  1  0
  3  4  1  0
  3 16  1  0
  4 24  3  0
  5 17  1  0
 18  5  2  0
  6  7  2  0
 18  6  1  0
  6 25  1  0
  7 19  1  0
  8  9  1  0
 19  8  1  0
  9 10  2  0
  9 13  1  0
 10 11  1  0
 11 12  2  0
 20 12  1  0
 13 20  2  0
 14 18  1  0
 14 19  1  0
 15 17  2  0
 16 22  2  0
 16 23  1  0
 21 22  1  0
M  END
$$$$
