
     RDKit          3D

 25 28  0  0  0  0  0  0  0  0999 V2000
  -12.9624    8.5820  -26.8830 C   0  0  0  0  0  0  0  0  0  0  0  0
  -13.3166    9.3826  -24.5271 C   0  0  0  0  0  0  0  0  0  0  0  0
  -13.0571   10.1668  -23.4419 C   0  0  0  0  0  0  0  0  0  0  0  0
  -12.3602   11.4076  -23.4010 C   0  0  0  0  0  0  0  0  0  0  0  0
  -12.2770   11.1060  -27.6972 C   0  0  0  0  0  0  0  0  0  0  0  0
  -11.9854   10.0801  -29.9824 C   0  0  0  0  0  0  0  0  0  0  0  0
  -12.1642    8.7619  -30.3786 C   0  0  0  0  0  0  0  0  0  0  0  0
  -12.8376    6.6236  -29.2928 C   0  0  0  0  0  0  0  0  0  0  0  0
  -11.5680    5.9062  -29.0299 C   0  0  0  0  0  0  0  0  0  0  0  0
  -11.6203    4.5111  -29.0590 C   0  0  0  0  0  0  0  0  0  0  0  0
  -10.4887    3.7577  -28.8274 C   0  0  0  0  0  0  0  0  0  0  0  0
   -9.3219    4.4262  -28.5700 C   0  0  0  0  0  0  0  0  0  0  0  0
  -10.3669    6.4795  -28.7666 C   0  0  0  0  0  0  0  0  0  0  0  0
  -12.6212    8.8312  -28.2205 C   0  0  0  0  0  0  0  0  0  0  0  0
  -12.9712    9.5656  -25.9330 C   0  0  0  0  0  0  0  0  0  0  0  0
  -13.5925    9.5710  -22.2835 C   0  0  0  0  0  0  0  0  0  0  0  0
  -12.6155   10.8352  -26.3930 C   0  0  0  0  0  0  0  0  0  0  0  0
  -12.2762   10.0985  -28.6330 C   0  0  0  0  0  0  0  0  0  0  0  0
  -12.5442    8.0448  -29.2994 N   0  0  0  0  0  0  0  0  0  0  0  0
   -9.2607    5.7736  -28.5398 N   0  0  0  0  0  0  0  0  0  0  0  0
  -14.0054    8.3169  -24.0316 N   0  0  0  0  0  0  0  0  0  0  0  0
  -14.1585    8.4386  -22.7298 N   0  0  0  0  0  0  0  0  0  0  0  0
  -13.5294   10.0789  -20.9639 N   0  0  0  0  0  0  0  0  0  0  0  0
  -11.8147   12.4195  -23.3705 N   0  0  0  0  0  0  0  0  0  0  0  0
  -11.4947   11.4175  -30.9975 Cl  0  0  0  0  0  0  0  0  0  0  0  0
 14  1  2  0
  1 15  1  0
  2  3  2  0
 15  2  1  0
  2 21  1  0
  3  4  1  0
  3 16  1  0
  4 24  3  0
  5 17  1  0
 18  5  2  0
  6  7  2  0
 18  6  1  0
  6 25  1  0
  7 19  1  0
  8  9  1  0
 19  8  1  0
  9 10  2  0
  9 13  1  0
 10 11  1  0
 11 12  2  0
 20 12  1  0
 13 20  2  0
 14 18  1  0
 14 19  1  0
 15 17  2  0
 16 22  2  0
 16 23  1  0
 21 22  1  0
M  END
$$$$
