
     RDKit          3D

 25 28  0  0  0  0  0  0  0  0999 V2000
  -22.0304   19.7561  -10.8909 C   0  0  0  0  0  0  0  0  0  0  0  0
  -20.1423   18.5863  -12.0672 C   0  0  0  0  0  0  0  0  0  0  0  0
  -19.6659   17.3712  -12.4628 C   0  0  0  0  0  0  0  0  0  0  0  0
  -20.4075   16.2325  -12.8875 C   0  0  0  0  0  0  0  0  0  0  0  0
  -23.7103   19.2888  -13.0035 C   0  0  0  0  0  0  0  0  0  0  0  0
  -25.4493   20.5026  -11.6387 C   0  0  0  0  0  0  0  0  0  0  0  0
  -25.3324   21.0680  -10.3765 C   0  0  0  0  0  0  0  0  0  0  0  0
  -23.5393   21.3142   -8.6652 C   0  0  0  0  0  0  0  0  0  0  0  0
  -23.9033   20.2976   -7.6504 C   0  0  0  0  0  0  0  0  0  0  0  0
  -25.0993   19.6074   -7.8575 C   0  0  0  0  0  0  0  0  0  0  0  0
  -25.5200   18.6420   -6.9670 C   0  0  0  0  0  0  0  0  0  0  0  0
  -24.7252   18.3895   -5.8812 C   0  0  0  0  0  0  0  0  0  0  0  0
  -23.1827   19.9786   -6.5460 C   0  0  0  0  0  0  0  0  0  0  0  0
  -23.3598   20.2023  -10.8565 C   0  0  0  0  0  0  0  0  0  0  0  0
  -21.5121   19.0778  -11.9592 C   0  0  0  0  0  0  0  0  0  0  0  0
  -18.2589   17.3668  -12.4000 C   0  0  0  0  0  0  0  0  0  0  0  0
  -22.4038   18.8625  -13.0121 C   0  0  0  0  0  0  0  0  0  0  0  0
  -24.2067   19.9691  -11.9164 C   0  0  0  0  0  0  0  0  0  0  0  0
  -24.0700   20.8693   -9.9405 N   0  0  0  0  0  0  0  0  0  0  0  0
  -23.5680   19.0506   -5.6720 N   0  0  0  0  0  0  0  0  0  0  0  0
  -19.0322   19.3159  -11.7658 N   0  0  0  0  0  0  0  0  0  0  0  0
  -17.9471   18.5971  -11.9632 N   0  0  0  0  0  0  0  0  0  0  0  0
  -17.4002   16.2912  -12.7301 N   0  0  0  0  0  0  0  0  0  0  0  0
  -21.0019   15.3171  -13.2496 N   0  0  0  0  0  0  0  0  0  0  0  0
  -26.8799   20.4831  -12.6451 Cl  0  0  0  0  0  0  0  0  0  0  0  0
 14  1  2  0
  1 15  1  0
  2  3  2  0
 15  2  1  0
  2 21  1  0
  3  4  1  0
  3 16  1  0
  4 24  3  0
  5 17  1  0
 18  5  2  0
  6  7  2  0
 18  6  1  0
  6 25  1  0
  7 19  1  0
  8  9  1  0
 19  8  1  0
  9 10  2  0
  9 13  1  0
 10 11  1  0
 11 12  2  0
 20 12  1  0
 13 20  2  0
 14 18  1  0
 14 19  1  0
 15 17  2  0
 16 22  2  0
 16 23  1  0
 21 22  1  0
M  END
$$$$
