
     RDKit          3D

 25 28  0  0  0  0  0  0  0  0999 V2000
  -12.5192    8.7581  -27.1110 C   0  0  0  0  0  0  0  0  0  0  0  0
  -12.5129    9.2443  -24.6452 C   0  0  0  0  0  0  0  0  0  0  0  0
  -12.5841    8.9386  -23.3180 C   0  0  0  0  0  0  0  0  0  0  0  0
  -12.5052    7.6552  -22.7065 C   0  0  0  0  0  0  0  0  0  0  0  0
  -11.7723    6.1620  -26.6579 C   0  0  0  0  0  0  0  0  0  0  0  0
  -11.8435    5.9075  -29.1660 C   0  0  0  0  0  0  0  0  0  0  0  0
  -12.1607    6.8522  -30.1322 C   0  0  0  0  0  0  0  0  0  0  0  0
  -12.8230    9.2532  -30.1640 C   0  0  0  0  0  0  0  0  0  0  0  0
  -11.5765    9.9983  -30.4588 C   0  0  0  0  0  0  0  0  0  0  0  0
  -11.7254   11.2810  -30.9901 C   0  0  0  0  0  0  0  0  0  0  0  0
  -10.6225   12.0506  -31.2952 C   0  0  0  0  0  0  0  0  0  0  0  0
   -9.3864   11.5116  -31.0584 C   0  0  0  0  0  0  0  0  0  0  0  0
  -10.3120    9.5494  -30.2588 C   0  0  0  0  0  0  0  0  0  0  0  0
  -12.3334    7.8727  -28.1829 C   0  0  0  0  0  0  0  0  0  0  0  0
  -12.3409    8.3806  -25.8088 C   0  0  0  0  0  0  0  0  0  0  0  0
  -12.7571   10.1164  -22.5655 C   0  0  0  0  0  0  0  0  0  0  0  0
  -11.9608    7.0495  -25.6257 C   0  0  0  0  0  0  0  0  0  0  0  0
  -11.9581    6.5673  -27.9587 C   0  0  0  0  0  0  0  0  0  0  0  0
  -12.4478    8.0145  -29.5077 N   0  0  0  0  0  0  0  0  0  0  0  0
   -9.2317   10.2735  -30.5453 N   0  0  0  0  0  0  0  0  0  0  0  0
  -12.6417   10.5993  -24.6991 N   0  0  0  0  0  0  0  0  0  0  0  0
  -12.7825   11.0923  -23.4867 N   0  0  0  0  0  0  0  0  0  0  0  0
  -12.8741   10.2124  -21.1582 N   0  0  0  0  0  0  0  0  0  0  0  0
  -12.4452    6.6271  -22.1948 N   0  0  0  0  0  0  0  0  0  0  0  0
  -11.3962    4.2396  -29.4443 Cl  0  0  0  0  0  0  0  0  0  0  0  0
 14  1  2  0
  1 15  1  0
  2  3  2  0
 15  2  1  0
  2 21  1  0
  3  4  1  0
  3 16  1  0
  4 24  3  0
  5 17  1  0
 18  5  2  0
  6  7  2  0
 18  6  1  0
  6 25  1  0
  7 19  1  0
  8  9  1  0
 19  8  1  0
  9 10  2  0
  9 13  1  0
 10 11  1  0
 11 12  2  0
 20 12  1  0
 13 20  2  0
 14 18  1  0
 14 19  1  0
 15 17  2  0
 16 22  2  0
 16 23  1  0
 21 22  1  0
M  END
$$$$
