
     RDKit          3D

 25 28  0  0  0  0  0  0  0  0999 V2000
  -21.6475   20.0841  -11.5252 C   0  0  0  0  0  0  0  0  0  0  0  0
  -19.7848   18.6325  -12.3854 C   0  0  0  0  0  0  0  0  0  0  0  0
  -19.1734   17.4760  -12.7710 C   0  0  0  0  0  0  0  0  0  0  0  0
  -19.7301   16.1672  -12.8361 C   0  0  0  0  0  0  0  0  0  0  0  0
  -23.3700   17.9543  -11.4978 C   0  0  0  0  0  0  0  0  0  0  0  0
  -25.0807   19.5973  -10.6411 C   0  0  0  0  0  0  0  0  0  0  0  0
  -24.9381   20.9537  -10.3829 C   0  0  0  0  0  0  0  0  0  0  0  0
  -23.1141   22.6423  -10.5437 C   0  0  0  0  0  0  0  0  0  0  0  0
  -22.7408   22.8365   -9.1229 C   0  0  0  0  0  0  0  0  0  0  0  0
  -21.9623   21.8356   -8.5382 C   0  0  0  0  0  0  0  0  0  0  0  0
  -21.5651   21.9298   -7.2210 C   0  0  0  0  0  0  0  0  0  0  0  0
  -21.9610   23.0342   -6.5153 C   0  0  0  0  0  0  0  0  0  0  0  0
  -23.0844   23.8933   -8.3447 C   0  0  0  0  0  0  0  0  0  0  0  0
  -22.9761   20.2474  -11.1059 C   0  0  0  0  0  0  0  0  0  0  0  0
  -21.1510   18.8775  -11.9346 C   0  0  0  0  0  0  0  0  0  0  0  0
  -17.8350   17.7380  -13.1225 C   0  0  0  0  0  0  0  0  0  0  0  0
  -22.0638   17.8212  -11.9040 C   0  0  0  0  0  0  0  0  0  0  0  0
  -23.8443   19.1792  -11.0909 C   0  0  0  0  0  0  0  0  0  0  0  0
  -23.6674   21.3069  -10.6724 N   0  0  0  0  0  0  0  0  0  0  0  0
  -22.7131   24.0067   -7.0707 N   0  0  0  0  0  0  0  0  0  0  0  0
  -18.8243   19.5914  -12.5018 N   0  0  0  0  0  0  0  0  0  0  0  0
  -17.6989   19.0594  -12.9300 N   0  0  0  0  0  0  0  0  0  0  0  0
  -16.8782   16.7971  -13.5725 N   0  0  0  0  0  0  0  0  0  0  0  0
  -20.1977   15.1177  -12.8841 N   0  0  0  0  0  0  0  0  0  0  0  0
  -26.5312   18.6422  -10.4327 Cl  0  0  0  0  0  0  0  0  0  0  0  0
 14  1  2  0
  1 15  1  0
  2  3  2  0
 15  2  1  0
  2 21  1  0
  3  4  1  0
  3 16  1  0
  4 24  3  0
  5 17  1  0
 18  5  2  0
  6  7  2  0
 18  6  1  0
  6 25  1  0
  7 19  1  0
  8  9  1  0
 19  8  1  0
  9 10  2  0
  9 13  1  0
 10 11  1  0
 11 12  2  0
 20 12  1  0
 13 20  2  0
 14 18  1  0
 14 19  1  0
 15 17  2  0
 16 22  2  0
 16 23  1  0
 21 22  1  0
M  END
$$$$
