
     RDKit          3D

 25 28  0  0  0  0  0  0  0  0999 V2000
  -12.6823    9.3088  -26.2718 C   0  0  0  0  0  0  0  0  0  0  0  0
  -12.5277   10.3790  -24.0030 C   0  0  0  0  0  0  0  0  0  0  0  0
  -13.2483    9.5891  -23.1564 C   0  0  0  0  0  0  0  0  0  0  0  0
  -14.1420    8.5316  -23.4882 C   0  0  0  0  0  0  0  0  0  0  0  0
  -12.0345   11.6735  -27.4932 C   0  0  0  0  0  0  0  0  0  0  0  0
  -12.2487   10.3920  -29.6547 C   0  0  0  0  0  0  0  0  0  0  0  0
  -12.5715    9.0564  -29.8513 C   0  0  0  0  0  0  0  0  0  0  0  0
  -13.1342    7.1022  -28.4130 C   0  0  0  0  0  0  0  0  0  0  0  0
  -11.8813    6.3114  -28.3857 C   0  0  0  0  0  0  0  0  0  0  0  0
  -12.0113    4.9416  -28.1474 C   0  0  0  0  0  0  0  0  0  0  0  0
  -10.9013    4.1245  -28.1051 C   0  0  0  0  0  0  0  0  0  0  0  0
   -9.6772    4.7045  -28.3043 C   0  0  0  0  0  0  0  0  0  0  0  0
  -10.6276    6.7954  -28.5715 C   0  0  0  0  0  0  0  0  0  0  0  0
  -12.5952    9.3884  -27.6695 C   0  0  0  0  0  0  0  0  0  0  0  0
  -12.4533   10.3854  -25.4604 C   0  0  0  0  0  0  0  0  0  0  0  0
  -12.9928    9.9617  -21.8224 C   0  0  0  0  0  0  0  0  0  0  0  0
  -12.1265   11.5687  -26.1260 C   0  0  0  0  0  0  0  0  0  0  0  0
  -12.2698   10.5752  -28.2865 C   0  0  0  0  0  0  0  0  0  0  0  0
  -12.7719    8.4885  -28.6427 N   0  0  0  0  0  0  0  0  0  0  0  0
   -9.5408    6.0267  -28.5353 N   0  0  0  0  0  0  0  0  0  0  0  0
  -11.8386   11.2263  -23.1889 N   0  0  0  0  0  0  0  0  0  0  0  0
  -12.1173   10.9737  -21.9275 N   0  0  0  0  0  0  0  0  0  0  0  0
  -13.5505    9.3793  -20.6592 N   0  0  0  0  0  0  0  0  0  0  0  0
  -14.8540    7.6749  -23.7736 N   0  0  0  0  0  0  0  0  0  0  0  0
  -11.8942   11.5735  -30.8949 Cl  0  0  0  0  0  0  0  0  0  0  0  0
 14  1  2  0
  1 15  1  0
  2  3  2  0
 15  2  1  0
  2 21  1  0
  3  4  1  0
  3 16  1  0
  4 24  3  0
  5 17  1  0
 18  5  2  0
  6  7  2  0
 18  6  1  0
  6 25  1  0
  7 19  1  0
  8  9  1  0
 19  8  1  0
  9 10  2  0
  9 13  1  0
 10 11  1  0
 11 12  2  0
 20 12  1  0
 13 20  2  0
 14 18  1  0
 14 19  1  0
 15 17  2  0
 16 22  2  0
 16 23  1  0
 21 22  1  0
M  END
$$$$
