
     RDKit          3D

 25 28  0  0  0  0  0  0  0  0999 V2000
  -11.2021    6.8792  -28.2418 C   0  0  0  0  0  0  0  0  0  0  0  0
   -9.9965    4.8206  -27.4508 C   0  0  0  0  0  0  0  0  0  0  0  0
   -8.8998    4.1787  -26.9559 C   0  0  0  0  0  0  0  0  0  0  0  0
   -7.5341    4.5690  -27.0547 C   0  0  0  0  0  0  0  0  0  0  0  0
   -9.0317    7.6484  -29.7254 C   0  0  0  0  0  0  0  0  0  0  0  0
  -10.4311    9.6407  -30.3831 C   0  0  0  0  0  0  0  0  0  0  0  0
  -11.7270    9.9626  -30.0042 C   0  0  0  0  0  0  0  0  0  0  0  0
  -13.4859    8.9642  -28.5504 C   0  0  0  0  0  0  0  0  0  0  0  0
  -13.3817    9.6722  -27.2529 C   0  0  0  0  0  0  0  0  0  0  0  0
  -13.6636    8.9244  -26.1078 C   0  0  0  0  0  0  0  0  0  0  0  0
  -13.5918    9.4975  -24.8556 C   0  0  0  0  0  0  0  0  0  0  0  0
  -13.2362   10.8175  -24.7803 C   0  0  0  0  0  0  0  0  0  0  0  0
  -13.0380   10.9730  -27.0788 C   0  0  0  0  0  0  0  0  0  0  0  0
  -11.2362    8.0629  -28.9937 C   0  0  0  0  0  0  0  0  0  0  0  0
  -10.1058    6.0624  -28.2095 C   0  0  0  0  0  0  0  0  0  0  0  0
   -9.2954    3.0029  -26.2891 C   0  0  0  0  0  0  0  0  0  0  0  0
   -9.0241    6.4937  -28.9801 C   0  0  0  0  0  0  0  0  0  0  0  0
  -10.1472    8.4523  -29.7404 C   0  0  0  0  0  0  0  0  0  0  0  0
  -12.1758    8.9972  -29.1736 N   0  0  0  0  0  0  0  0  0  0  0  0
  -12.9618   11.5487  -25.8803 N   0  0  0  0  0  0  0  0  0  0  0  0
  -11.0521    4.0402  -27.0871 N   0  0  0  0  0  0  0  0  0  0  0  0
  -10.6317    2.9898  -26.4142 N   0  0  0  0  0  0  0  0  0  0  0  0
   -8.4488    2.0697  -25.6443 N   0  0  0  0  0  0  0  0  0  0  0  0
   -6.4303    4.8860  -27.1145 N   0  0  0  0  0  0  0  0  0  0  0  0
   -9.3965   10.5623  -31.4508 Cl  0  0  0  0  0  0  0  0  0  0  0  0
 14  1  2  0
  1 15  1  0
  2  3  2  0
 15  2  1  0
  2 21  1  0
  3  4  1  0
  3 16  1  0
  4 24  3  0
  5 17  1  0
 18  5  2  0
  6  7  2  0
 18  6  1  0
  6 25  1  0
  7 19  1  0
  8  9  1  0
 19  8  1  0
  9 10  2  0
  9 13  1  0
 10 11  1  0
 11 12  2  0
 20 12  1  0
 13 20  2  0
 14 18  1  0
 14 19  1  0
 15 17  2  0
 16 22  2  0
 16 23  1  0
 21 22  1  0
M  END
$$$$
