
     RDKit          3D

 25 28  0  0  0  0  0  0  0  0999 V2000
  -12.7438    8.8133  -26.8850 C   0  0  0  0  0  0  0  0  0  0  0  0
  -12.7435    8.8831  -24.3727 C   0  0  0  0  0  0  0  0  0  0  0  0
  -12.5849   10.1943  -24.0326 C   0  0  0  0  0  0  0  0  0  0  0  0
  -12.2341   11.2850  -24.8778 C   0  0  0  0  0  0  0  0  0  0  0  0
  -12.1560    6.1379  -26.8666 C   0  0  0  0  0  0  0  0  0  0  0  0
  -12.2070    6.3071  -29.3823 C   0  0  0  0  0  0  0  0  0  0  0  0
  -12.4551    7.4160  -30.1795 C   0  0  0  0  0  0  0  0  0  0  0  0
  -12.9756    9.8244  -29.8146 C   0  0  0  0  0  0  0  0  0  0  0  0
  -11.6836   10.4915  -30.1001 C   0  0  0  0  0  0  0  0  0  0  0  0
  -10.8930    9.9216  -31.1001 C   0  0  0  0  0  0  0  0  0  0  0  0
   -9.6747   10.4733  -31.4364 C   0  0  0  0  0  0  0  0  0  0  0  0
   -9.2746   11.5924  -30.7568 C   0  0  0  0  0  0  0  0  0  0  0  0
  -11.2038   11.5998  -29.4821 C   0  0  0  0  0  0  0  0  0  0  0  0
  -12.5950    8.1080  -28.0884 C   0  0  0  0  0  0  0  0  0  0  0  0
  -12.6060    8.2154  -25.6629 C   0  0  0  0  0  0  0  0  0  0  0  0
  -12.8233   10.3622  -22.6547 C   0  0  0  0  0  0  0  0  0  0  0  0
  -12.3068    6.8519  -25.7020 C   0  0  0  0  0  0  0  0  0  0  0  0
  -12.2997    6.7635  -28.0826 C   0  0  0  0  0  0  0  0  0  0  0  0
  -12.6825    8.4739  -29.3717 N   0  0  0  0  0  0  0  0  0  0  0  0
  -10.0309   12.1508  -29.7892 N   0  0  0  0  0  0  0  0  0  0  0  0
  -13.0761    8.2579  -23.2090 N   0  0  0  0  0  0  0  0  0  0  0  0
  -13.1189    9.1268  -22.2210 N   0  0  0  0  0  0  0  0  0  0  0  0
  -12.7571   11.5735  -21.9256 N   0  0  0  0  0  0  0  0  0  0  0  0
  -11.9547   12.1787  -25.5455 N   0  0  0  0  0  0  0  0  0  0  0  0
  -11.8540    4.6845  -29.9321 Cl  0  0  0  0  0  0  0  0  0  0  0  0
 14  1  2  0
  1 15  1  0
  2  3  2  0
 15  2  1  0
  2 21  1  0
  3  4  1  0
  3 16  1  0
  4 24  3  0
  5 17  1  0
 18  5  2  0
  6  7  2  0
 18  6  1  0
  6 25  1  0
  7 19  1  0
  8  9  1  0
 19  8  1  0
  9 10  2  0
  9 13  1  0
 10 11  1  0
 11 12  2  0
 20 12  1  0
 13 20  2  0
 14 18  1  0
 14 19  1  0
 15 17  2  0
 16 22  2  0
 16 23  1  0
 21 22  1  0
M  END
$$$$
