
     RDKit          3D

 25 28  0  0  0  0  0  0  0  0999 V2000
  -21.8114   19.9086  -11.5335 C   0  0  0  0  0  0  0  0  0  0  0  0
  -19.9268   18.5874  -12.5430 C   0  0  0  0  0  0  0  0  0  0  0  0
  -19.1684   17.4630  -12.6861 C   0  0  0  0  0  0  0  0  0  0  0  0
  -19.5245   16.1184  -12.3820 C   0  0  0  0  0  0  0  0  0  0  0  0
  -23.4736   17.7347  -11.6523 C   0  0  0  0  0  0  0  0  0  0  0  0
  -25.2118   19.2513  -10.6331 C   0  0  0  0  0  0  0  0  0  0  0  0
  -25.1016   20.5853  -10.2662 C   0  0  0  0  0  0  0  0  0  0  0  0
  -23.3283   22.3338  -10.3185 C   0  0  0  0  0  0  0  0  0  0  0  0
  -22.9235   22.4183   -8.8955 C   0  0  0  0  0  0  0  0  0  0  0  0
  -22.2751   23.5894   -8.4982 C   0  0  0  0  0  0  0  0  0  0  0  0
  -21.8622   23.7592   -7.1934 C   0  0  0  0  0  0  0  0  0  0  0  0
  -22.1113   22.7428   -6.3106 C   0  0  0  0  0  0  0  0  0  0  0  0
  -23.1264   21.4667   -7.9501 C   0  0  0  0  0  0  0  0  0  0  0  0
  -23.1355   19.9983  -11.0791 C   0  0  0  0  0  0  0  0  0  0  0  0
  -21.2900   18.7548  -12.0498 C   0  0  0  0  0  0  0  0  0  0  0  0
  -17.9039   17.8030  -13.2046 C   0  0  0  0  0  0  0  0  0  0  0  0
  -22.1726   17.6734  -12.0908 C   0  0  0  0  0  0  0  0  0  0  0  0
  -23.9734   18.9076  -11.1374 C   0  0  0  0  0  0  0  0  0  0  0  0
  -23.8470   20.9980  -10.5475 N   0  0  0  0  0  0  0  0  0  0  0  0
  -22.7371   21.6075   -6.6843 N   0  0  0  0  0  0  0  0  0  0  0  0
  -19.1284   19.6044  -12.9718 N   0  0  0  0  0  0  0  0  0  0  0  0
  -17.9586   19.1359  -13.3525 N   0  0  0  0  0  0  0  0  0  0  0  0
  -16.8402   16.9147  -13.4922 N   0  0  0  0  0  0  0  0  0  0  0  0
  -19.8204   15.0307  -12.1546 N   0  0  0  0  0  0  0  0  0  0  0  0
  -26.6310   18.2404  -10.4793 Cl  0  0  0  0  0  0  0  0  0  0  0  0
 14  1  2  0
  1 15  1  0
  2  3  2  0
 15  2  1  0
  2 21  1  0
  3  4  1  0
  3 16  1  0
  4 24  3  0
  5 17  1  0
 18  5  2  0
  6  7  2  0
 18  6  1  0
  6 25  1  0
  7 19  1  0
  8  9  1  0
 19  8  1  0
  9 10  2  0
  9 13  1  0
 10 11  1  0
 11 12  2  0
 20 12  1  0
 13 20  2  0
 14 18  1  0
 14 19  1  0
 15 17  2  0
 16 22  2  0
 16 23  1  0
 21 22  1  0
M  END
$$$$
