
     RDKit          3D

 25 28  0  0  0  0  0  0  0  0999 V2000
  -11.8544    8.9135  -26.1588 C   0  0  0  0  0  0  0  0  0  0  0  0
  -12.3305   10.0692  -23.9784 C   0  0  0  0  0  0  0  0  0  0  0  0
  -13.3674   10.1105  -23.0935 C   0  0  0  0  0  0  0  0  0  0  0  0
  -14.7629   10.0658  -23.3723 C   0  0  0  0  0  0  0  0  0  0  0  0
  -12.8982   11.0185  -27.5669 C   0  0  0  0  0  0  0  0  0  0  0  0
  -12.3303    9.6734  -29.6232 C   0  0  0  0  0  0  0  0  0  0  0  0
  -11.7400    8.4204  -29.7131 C   0  0  0  0  0  0  0  0  0  0  0  0
  -10.8827    6.7077  -28.1206 C   0  0  0  0  0  0  0  0  0  0  0  0
  -11.8500    5.6420  -28.4734 C   0  0  0  0  0  0  0  0  0  0  0  0
  -11.4971    4.8023  -29.5318 C   0  0  0  0  0  0  0  0  0  0  0  0
  -12.3334    3.7812  -29.9313 C   0  0  0  0  0  0  0  0  0  0  0  0
  -13.5134    3.6248  -29.2548 C   0  0  0  0  0  0  0  0  0  0  0  0
  -13.0394    5.4098  -27.8635 C   0  0  0  0  0  0  0  0  0  0  0  0
  -11.8888    8.8859  -27.5609 C   0  0  0  0  0  0  0  0  0  0  0  0
  -12.3305    9.9710  -25.4344 C   0  0  0  0  0  0  0  0  0  0  0  0
  -12.8699   10.2098  -21.7796 C   0  0  0  0  0  0  0  0  0  0  0  0
  -12.8528   11.0204  -26.1933 C   0  0  0  0  0  0  0  0  0  0  0  0
  -12.4127    9.9421  -28.2715 C   0  0  0  0  0  0  0  0  0  0  0  0
  -11.4904    7.9808  -28.4610 N   0  0  0  0  0  0  0  0  0  0  0  0
  -13.8637    4.4305  -28.2310 N   0  0  0  0  0  0  0  0  0  0  0  0
  -11.2099   10.1428  -23.2075 N   0  0  0  0  0  0  0  0  0  0  0  0
  -11.5367   10.2239  -21.9349 N   0  0  0  0  0  0  0  0  0  0  0  0
  -13.6318   10.2774  -20.5888 N   0  0  0  0  0  0  0  0  0  0  0  0
  -15.8896   10.0492  -23.6019 N   0  0  0  0  0  0  0  0  0  0  0  0
  -12.8510   10.6798  -30.9557 Cl  0  0  0  0  0  0  0  0  0  0  0  0
 14  1  2  0
  1 15  1  0
  2  3  2  0
 15  2  1  0
  2 21  1  0
  3  4  1  0
  3 16  1  0
  4 24  3  0
  5 17  1  0
 18  5  2  0
  6  7  2  0
 18  6  1  0
  6 25  1  0
  7 19  1  0
  8  9  1  0
 19  8  1  0
  9 10  2  0
  9 13  1  0
 10 11  1  0
 11 12  2  0
 20 12  1  0
 13 20  2  0
 14 18  1  0
 14 19  1  0
 15 17  2  0
 16 22  2  0
 16 23  1  0
 21 22  1  0
M  END
$$$$
