
     RDKit          3D

 25 28  0  0  0  0  0  0  0  0999 V2000
  -11.9513    9.6479  -27.2113 C   0  0  0  0  0  0  0  0  0  0  0  0
  -12.5493   10.2387  -24.8427 C   0  0  0  0  0  0  0  0  0  0  0  0
  -13.0795    9.8964  -23.6337 C   0  0  0  0  0  0  0  0  0  0  0  0
  -14.0930    8.9349  -23.3592 C   0  0  0  0  0  0  0  0  0  0  0  0
  -14.5179    8.8350  -27.7159 C   0  0  0  0  0  0  0  0  0  0  0  0
  -13.6901    8.3147  -30.0405 C   0  0  0  0  0  0  0  0  0  0  0  0
  -12.4173    8.4722  -30.5713 C   0  0  0  0  0  0  0  0  0  0  0  0
  -10.2075    9.2845  -29.7580 C   0  0  0  0  0  0  0  0  0  0  0  0
   -9.4418    8.1104  -29.2775 C   0  0  0  0  0  0  0  0  0  0  0  0
  -10.0873    6.8738  -29.3415 C   0  0  0  0  0  0  0  0  0  0  0  0
   -9.4536    5.7245  -28.9180 C   0  0  0  0  0  0  0  0  0  0  0  0
   -8.1775    5.8430  -28.4365 C   0  0  0  0  0  0  0  0  0  0  0  0
   -8.1776    8.1288  -28.7855 C   0  0  0  0  0  0  0  0  0  0  0  0
  -12.3080    9.1585  -28.4765 C   0  0  0  0  0  0  0  0  0  0  0  0
  -12.8472    9.7434  -26.1827 C   0  0  0  0  0  0  0  0  0  0  0  0
  -12.4705   10.6534  -22.6140 C   0  0  0  0  0  0  0  0  0  0  0  0
  -14.1425    9.3181  -26.4853 C   0  0  0  0  0  0  0  0  0  0  0  0
  -13.5970    8.7492  -28.7334 C   0  0  0  0  0  0  0  0  0  0  0  0
  -11.6181    8.9785  -29.6078 N   0  0  0  0  0  0  0  0  0  0  0  0
   -7.5449    7.0328  -28.3706 N   0  0  0  0  0  0  0  0  0  0  0  0
  -11.6239   11.1975  -24.5598 N   0  0  0  0  0  0  0  0  0  0  0  0
  -11.5884   11.4284  -23.2643 N   0  0  0  0  0  0  0  0  0  0  0  0
  -12.7500   10.5863  -21.2282 N   0  0  0  0  0  0  0  0  0  0  0  0
  -14.9223    8.1724  -23.1282 N   0  0  0  0  0  0  0  0  0  0  0  0
  -15.0983    7.6944  -30.8723 Cl  0  0  0  0  0  0  0  0  0  0  0  0
 14  1  2  0
  1 15  1  0
  2  3  2  0
 15  2  1  0
  2 21  1  0
  3  4  1  0
  3 16  1  0
  4 24  3  0
  5 17  1  0
 18  5  2  0
  6  7  2  0
 18  6  1  0
  6 25  1  0
  7 19  1  0
  8  9  1  0
 19  8  1  0
  9 10  2  0
  9 13  1  0
 10 11  1  0
 11 12  2  0
 20 12  1  0
 13 20  2  0
 14 18  1  0
 14 19  1  0
 15 17  2  0
 16 22  2  0
 16 23  1  0
 21 22  1  0
M  END
$$$$
