
     RDKit          3D

 31 33  0  0  0  0  0  0  0  0999 V2000
  106.3121  -14.9031   -9.1901 C   0  0  2  0  0  0  0  0  0  0  0  0
  107.5448  -15.4760   -9.0124 O   0  0  0  0  0  0  0  0  0  0  0  0
  105.5634  -14.7243   -7.8621 C   0  0  2  0  0  0  0  0  0  0  0  0
  105.0189  -15.9889   -7.3991 N   0  0  0  0  0  4  0  0  0  0  0  0
  104.3828  -13.8259   -8.1723 C   0  0  0  0  0  0  0  0  0  0  0  0
  104.1187  -13.7286   -9.6511 C   0  0  0  0  0  0  0  0  0  0  0  0
  104.3451  -15.0144  -10.3790 C   0  0  2  0  0  0  0  0  0  0  0  0
  105.4800  -15.6947   -9.9845 O   0  0  0  0  0  0  0  0  0  0  0  0
  104.5271  -14.6745  -11.8574 C   0  0  0  0  0  0  0  0  0  0  0  0
  104.3840  -13.2422  -11.9980 N   0  0  0  0  0  4  0  0  0  0  0  0
  110.9808  -16.0455   -9.4126 C   0  0  2  0  0  0  0  0  0  0  0  0
  112.2935  -16.5354   -9.7583 N   0  0  0  0  0  4  0  0  0  0  0  0
  110.2176  -15.8655  -10.6946 C   0  0  0  0  0  0  0  0  0  0  0  0
  109.1355  -14.8647  -10.6576 C   0  0  2  0  0  0  0  0  0  0  0  0
  109.5292  -13.6314  -11.3231 N   0  0  0  0  0  4  0  0  0  0  0  0
  108.5571  -14.5684   -9.3075 C   0  0  2  0  0  0  0  0  0  0  0  0
  109.5843  -14.4837   -8.2115 C   0  0  2  0  0  0  0  0  0  0  0  0
  109.5249  -13.2720   -7.5157 O   0  0  0  0  0  0  0  0  0  0  0  0
  111.0015  -14.7170   -8.6932 C   0  0  1  0  0  0  0  0  0  0  0  0
  111.8178  -14.7158   -7.5626 O   0  0  0  0  0  0  0  0  0  0  0  0
  112.6358  -13.6141   -7.5592 C   0  0  2  0  0  0  0  0  0  0  0  0
  114.0096  -13.8211   -7.0226 C   0  0  2  0  0  0  0  0  0  0  0  0
  114.5849  -15.0361   -7.2757 O   0  0  0  0  0  0  0  0  0  0  0  0
  114.0371  -13.5115   -5.5224 C   0  0  1  0  0  0  0  0  0  0  0  0
  115.2643  -14.0244   -4.9951 N   0  0  0  0  0  4  0  0  0  0  0  0
  113.9376  -11.9930   -5.4166 C   0  0  1  0  0  0  0  0  0  0  0  0
  115.1571  -11.3705   -5.5163 O   0  0  0  0  0  0  0  0  0  0  0  0
  112.9705  -11.5708   -6.5272 C   0  0  0  0  0  0  0  0  0  0  0  0
  112.0439  -12.6177   -6.7403 O   0  0  0  0  0  0  0  0  0  0  0  0
  113.2891  -11.6636   -4.0946 C   0  0  0  0  0  0  0  0  0  0  0  0
  116.1685  -12.9008   -4.7363 C   0  0  0  0  0  0  0  0  0  0  0  0
  1  2  1  1
  1  3  1  0
  1  8  1  0
 16  2  1  1
  3  4  1  6
  3  5  1  0
  5  6  1  0
  7  6  1  0
  8  7  1  0
  7  9  1  6
  9 10  1  0
 11 12  1  6
 13 11  1  0
 11 19  1  0
 14 13  1  0
 14 15  1  1
 14 16  1  0
 16 17  1  0
 17 18  1  6
 17 19  1  0
 19 20  1  1
 21 20  1  1
 21 22  1  0
 21 29  1  0
 22 23  1  1
 22 24  1  0
 24 25  1  6
 24 26  1  0
 25 31  1  0
 26 27  1  0
 26 28  1  0
 26 30  1  1
 28 29  1  0
M  CHG  5   4   1  10   1  12   1  15   1  25   1
M  END
$$$$
