
     RDKit          3D

 31 33  0  0  0  0  0  0  0  0999 V2000
  109.6225  -14.8393  -10.9564 C   0  0  2  0  0  0  0  0  0  0  0  0
  110.3053  -15.3066   -9.8634 O   0  0  0  0  0  0  0  0  0  0  0  0
  108.3504  -15.6530  -11.2317 C   0  0  2  0  0  0  0  0  0  0  0  0
  108.6729  -16.9257  -11.8533 N   0  0  0  0  0  4  0  0  0  0  0  0
  107.5628  -14.8543  -12.2510 C   0  0  0  0  0  0  0  0  0  0  0  0
  108.4038  -13.7960  -12.9133 C   0  0  0  0  0  0  0  0  0  0  0  0
  109.8111  -14.2312  -13.1677 C   0  0  2  0  0  0  0  0  0  0  0  0
  110.3838  -14.9299  -12.1236 O   0  0  0  0  0  0  0  0  0  0  0  0
  110.6492  -12.9689  -13.3649 C   0  0  0  0  0  0  0  0  0  0  0  0
  112.0285  -13.3136  -13.0996 N   0  0  0  0  0  4  0  0  0  0  0  0
  113.1586  -14.3445   -8.0680 C   0  0  2  0  0  0  0  0  0  0  0  0
  114.4790  -13.9681   -7.6234 N   0  0  0  0  0  4  0  0  0  0  0  0
  112.7922  -13.4336   -9.2057 C   0  0  0  0  0  0  0  0  0  0  0  0
  111.3478  -13.2269   -9.4176 C   0  0  2  0  0  0  0  0  0  0  0  0
  110.9182  -11.9281   -8.9203 N   0  0  0  0  0  4  0  0  0  0  0  0
  110.4448  -14.3074   -8.9055 C   0  0  2  0  0  0  0  0  0  0  0  0
  110.8526  -14.8557   -7.5650 C   0  0  2  0  0  0  0  0  0  0  0  0
  109.8230  -14.7814   -6.6215 O   0  0  0  0  0  0  0  0  0  0  0  0
  112.0987  -14.2048   -7.0004 C   0  0  1  0  0  0  0  0  0  0  0  0
  112.4105  -14.8833   -5.8228 O   0  0  0  0  0  0  0  0  0  0  0  0
  111.3979  -14.7500   -4.9064 C   0  0  2  0  0  0  0  0  0  0  0  0
  111.3615  -15.7672   -3.8192 C   0  0  2  0  0  0  0  0  0  0  0  0
  112.5713  -16.2159   -3.3651 O   0  0  0  0  0  0  0  0  0  0  0  0
  110.4690  -16.9421   -4.2321 C   0  0  1  0  0  0  0  0  0  0  0  0
  110.7166  -18.0172   -3.3211 N   0  0  0  0  0  4  0  0  0  0  0  0
  109.0390  -16.4170   -4.1514 C   0  0  1  0  0  0  0  0  0  0  0  0
  108.5040  -16.5187   -2.8913 O   0  0  0  0  0  0  0  0  0  0  0  0
  109.1097  -14.9681   -4.6440 C   0  0  0  0  0  0  0  0  0  0  0  0
  110.1581  -14.8632   -5.5874 O   0  0  0  0  0  0  0  0  0  0  0  0
  108.2046  -17.1962   -5.1381 C   0  0  0  0  0  0  0  0  0  0  0  0
  111.7430  -17.5937   -2.3650 C   0  0  0  0  0  0  0  0  0  0  0  0
  1  2  1  1
  1  3  1  0
  1  8  1  0
 16  2  1  6
  3  4  1  6
  3  5  1  0
  5  6  1  0
  7  6  1  0
  8  7  1  0
  7  9  1  1
  9 10  1  0
 11 12  1  1
 13 11  1  0
 11 19  1  0
 14 13  1  0
 14 15  1  1
 14 16  1  0
 16 17  1  0
 17 18  1  1
 17 19  1  0
 19 20  1  1
 21 20  1  6
 21 22  1  0
 21 29  1  0
 22 23  1  6
 22 24  1  0
 24 25  1  1
 24 26  1  0
 25 31  1  0
 26 27  1  0
 26 28  1  0
 26 30  1  6
 28 29  1  0
M  CHG  5   4   1  10   1  12   1  15   1  25   1
M  END
$$$$
