
     RDKit          3D

 31 33  0  0  0  0  0  0  0  0999 V2000
  113.3011  -14.3792   -9.5703 C   0  0  2  0  0  0  0  0  0  0  0  0
  112.8557  -15.1713   -8.5439 O   0  0  0  0  0  0  0  0  0  0  0  0
  112.2774  -14.2840  -10.7101 C   0  0  2  0  0  0  0  0  0  0  0  0
  112.2794  -15.4952  -11.5120 N   0  0  0  0  0  4  0  0  0  0  0  0
  112.7628  -13.1632  -11.6075 C   0  0  0  0  0  0  0  0  0  0  0  0
  114.1962  -12.7964  -11.3300 C   0  0  0  0  0  0  0  0  0  0  0  0
  115.0562  -13.9743  -11.0024 C   0  0  2  0  0  0  0  0  0  0  0  0
  114.4634  -14.8879  -10.1537 O   0  0  0  0  0  0  0  0  0  0  0  0
  116.2967  -13.4461  -10.2836 C   0  0  0  0  0  0  0  0  0  0  0  0
  116.8374  -12.3665  -11.0798 N   0  0  0  0  0  4  0  0  0  0  0  0
  112.1253  -15.8120   -5.1754 C   0  0  2  0  0  0  0  0  0  0  0  0
  112.1476  -16.1369   -3.7695 N   0  0  0  0  0  4  0  0  0  0  0  0
  113.1580  -14.7446   -5.4051 C   0  0  0  0  0  0  0  0  0  0  0  0
  112.9219  -13.8682   -6.5670 C   0  0  2  0  0  0  0  0  0  0  0  0
  112.4174  -12.5659   -6.1566 N   0  0  0  0  0  4  0  0  0  0  0  0
  112.0703  -14.4376   -7.6605 C   0  0  2  0  0  0  0  0  0  0  0  0
  110.8869  -15.2222   -7.1631 C   0  0  2  0  0  0  0  0  0  0  0  0
  109.6770  -14.7527   -7.6841 O   0  0  0  0  0  0  0  0  0  0  0  0
  110.7936  -15.2809   -5.6521 C   0  0  1  0  0  0  0  0  0  0  0  0
  109.7241  -16.1217   -5.3458 O   0  0  0  0  0  0  0  0  0  0  0  0
  108.5659  -15.3987   -5.2084 C   0  0  2  0  0  0  0  0  0  0  0  0
  107.5761  -15.9287   -4.2299 C   0  0  2  0  0  0  0  0  0  0  0  0
  108.0874  -16.5244   -3.1096 O   0  0  0  0  0  0  0  0  0  0  0  0
  106.5902  -16.8636   -4.9378 C   0  0  1  0  0  0  0  0  0  0  0  0
  105.8775  -17.5872   -3.9301 N   0  0  0  0  0  4  0  0  0  0  0  0
  105.6854  -15.9540   -5.7631 C   0  0  1  0  0  0  0  0  0  0  0  0
  104.6248  -15.4621   -5.0439 O   0  0  0  0  0  0  0  0  0  0  0  0
  106.5995  -14.8451   -6.2942 C   0  0  0  0  0  0  0  0  0  0  0  0
  107.9002  -15.3744   -6.4614 O   0  0  0  0  0  0  0  0  0  0  0  0
  105.1908  -16.7467   -6.9480 C   0  0  0  0  0  0  0  0  0  0  0  0
  106.8283  -18.4247   -3.1942 C   0  0  0  0  0  0  0  0  0  0  0  0
  1  2  1  1
  1  3  1  0
  1  8  1  0
 16  2  1  1
  3  4  1  6
  3  5  1  0
  5  6  1  0
  7  6  1  0
  8  7  1  0
  7  9  1  1
  9 10  1  0
 11 12  1  1
 13 11  1  0
 11 19  1  0
 14 13  1  0
 14 15  1  1
 14 16  1  0
 16 17  1  0
 17 18  1  6
 17 19  1  0
 19 20  1  6
 21 20  1  6
 21 22  1  0
 21 29  1  0
 22 23  1  1
 22 24  1  0
 24 25  1  1
 24 26  1  0
 25 31  1  0
 26 27  1  0
 26 28  1  0
 26 30  1  6
 28 29  1  0
M  CHG  5   4   1  10   1  12   1  15   1  25   1
M  END
$$$$
