
     RDKit          3D

 31 33  0  0  0  0  0  0  0  0999 V2000
  109.0827  -16.0299   -5.5870 C   0  0  2  0  0  0  0  0  0  0  0  0
  109.7669  -14.9236   -6.0199 O   0  0  0  0  0  0  0  0  0  0  0  0
  107.6577  -16.0844   -6.1549 C   0  0  2  0  0  0  0  0  0  0  0  0
  106.7866  -15.1517   -5.4612 N   0  0  0  0  0  4  0  0  0  0  0  0
  107.1440  -17.4765   -5.8464 C   0  0  0  0  0  0  0  0  0  0  0  0
  107.9850  -18.1735   -4.8105 C   0  0  0  0  0  0  0  0  0  0  0  0
  108.4808  -17.2589   -3.7371 C   0  0  2  0  0  0  0  0  0  0  0  0
  108.9321  -16.0385   -4.1987 O   0  0  0  0  0  0  0  0  0  0  0  0
  109.6716  -17.9447   -3.0691 C   0  0  0  0  0  0  0  0  0  0  0  0
  109.5296  -17.7742   -1.6399 N   0  0  0  0  0  4  0  0  0  0  0  0
  112.2236  -12.8915   -7.4778 C   0  0  2  0  0  0  0  0  0  0  0  0
  113.1991  -11.8787   -7.8022 N   0  0  0  0  0  4  0  0  0  0  0  0
  112.5798  -13.4398   -6.1247 C   0  0  0  0  0  0  0  0  0  0  0  0
  112.1274  -14.8169   -5.8552 C   0  0  2  0  0  0  0  0  0  0  0  0
  113.2260  -15.7666   -5.9566 N   0  0  0  0  0  4  0  0  0  0  0  0
  110.9505  -15.2922   -6.6514 C   0  0  2  0  0  0  0  0  0  0  0  0
  110.9823  -14.8690   -8.0948 C   0  0  2  0  0  0  0  0  0  0  0  0
  110.8814  -15.9534   -8.9722 O   0  0  0  0  0  0  0  0  0  0  0  0
  112.2005  -14.0435   -8.4550 C   0  0  1  0  0  0  0  0  0  0  0  0
  112.0369  -13.6389   -9.7794 O   0  0  0  0  0  0  0  0  0  0  0  0
  112.5454  -14.5807  -10.6381 C   0  0  2  0  0  0  0  0  0  0  0  0
  113.9467  -14.3625  -11.0930 C   0  0  2  0  0  0  0  0  0  0  0  0
  114.8031  -13.8089  -10.1810 O   0  0  0  0  0  0  0  0  0  0  0  0
  113.9537  -13.5603  -12.3982 C   0  0  1  0  0  0  0  0  0  0  0  0
  115.2913  -13.1035  -12.6204 N   0  0  0  0  0  4  0  0  0  0  0  0
  113.4735  -14.5280  -13.4752 C   0  0  1  0  0  0  0  0  0  0  0  0
  114.4882  -15.2909  -13.9974 O   0  0  0  0  0  0  0  0  0  0  0  0
  112.3871  -15.3752  -12.8051 C   0  0  0  0  0  0  0  0  0  0  0  0
  111.7514  -14.5917  -11.8142 O   0  0  0  0  0  0  0  0  0  0  0  0
  112.8153  -13.7171  -14.5644 C   0  0  0  0  0  0  0  0  0  0  0  0
  116.1895  -14.2611  -12.6080 C   0  0  0  0  0  0  0  0  0  0  0  0
  1  2  1  1
  1  3  1  0
  1  8  1  0
 16  2  1  1
  3  4  1  1
  3  5  1  0
  5  6  1  0
  7  6  1  0
  8  7  1  0
  7  9  1  6
  9 10  1  0
 11 12  1  6
 13 11  1  0
 11 19  1  0
 14 13  1  0
 14 15  1  6
 14 16  1  0
 16 17  1  0
 17 18  1  6
 17 19  1  0
 19 20  1  6
 21 20  1  1
 21 22  1  0
 21 29  1  0
 22 23  1  1
 22 24  1  0
 24 25  1  6
 24 26  1  0
 25 31  1  0
 26 27  1  0
 26 28  1  0
 26 30  1  6
 28 29  1  0
M  CHG  5   4   1  10   1  12   1  15   1  25   1
M  END
$$$$
