
     RDKit          3D

 31 33  0  0  0  0  0  0  0  0999 V2000
  110.5004  -14.0692  -12.0715 C   0  0  2  0  0  0  0  0  0  0  0  0
  111.1010  -14.5814  -10.9507 O   0  0  0  0  0  0  0  0  0  0  0  0
  110.4495  -15.0913  -13.2156 C   0  0  2  0  0  0  0  0  0  0  0  0
  111.7489  -15.2236  -13.8514 N   0  0  0  0  0  4  0  0  0  0  0  0
  109.5122  -14.5038  -14.2517 C   0  0  0  0  0  0  0  0  0  0  0  0
  109.2628  -13.0371  -14.0225 C   0  0  0  0  0  0  0  0  0  0  0  0
  110.4705  -12.2991  -13.5416 C   0  0  2  0  0  0  0  0  0  0  0  0
  111.1988  -12.9725  -12.5811 O   0  0  0  0  0  0  0  0  0  0  0  0
  109.9843  -11.0022  -12.8964 C   0  0  0  0  0  0  0  0  0  0  0  0
  109.8098  -10.0276  -13.9507 N   0  0  0  0  0  4  0  0  0  0  0  0
  112.7781  -13.1885   -8.2052 C   0  0  2  0  0  0  0  0  0  0  0  0
  113.6520  -12.4720   -7.3077 N   0  0  0  0  0  4  0  0  0  0  0  0
  112.2092  -12.1876   -9.1710 C   0  0  0  0  0  0  0  0  0  0  0  0
  110.9059  -12.5415   -9.7626 C   0  0  2  0  0  0  0  0  0  0  0  0
  109.8214  -11.7901   -9.1475 N   0  0  0  0  0  4  0  0  0  0  0  0
  110.5737  -14.0021   -9.8009 C   0  0  2  0  0  0  0  0  0  0  0  0
  110.9674  -14.7478   -8.5549 C   0  0  2  0  0  0  0  0  0  0  0  0
  109.8917  -15.4307   -7.9783 O   0  0  0  0  0  0  0  0  0  0  0  0
  111.6238  -13.8706   -7.5086 C   0  0  1  0  0  0  0  0  0  0  0  0
  112.0259  -14.7113   -6.4712 O   0  0  0  0  0  0  0  0  0  0  0  0
  111.0486  -14.7951   -5.5117 C   0  0  2  0  0  0  0  0  0  0  0  0
  111.5088  -15.1393   -4.1376 C   0  0  2  0  0  0  0  0  0  0  0  0
  112.7253  -14.6399   -3.7606 O   0  0  0  0  0  0  0  0  0  0  0  0
  111.4607  -16.6572   -3.9351 C   0  0  1  0  0  0  0  0  0  0  0  0
  112.2006  -16.9610   -2.7488 N   0  0  0  0  0  4  0  0  0  0  0  0
  109.9807  -17.0065   -3.8138 C   0  0  1  0  0  0  0  0  0  0  0  0
  109.5040  -16.8711   -2.5337 O   0  0  0  0  0  0  0  0  0  0  0  0
  109.2635  -16.0874   -4.8077 C   0  0  0  0  0  0  0  0  0  0  0  0
  110.1388  -15.8181   -5.8853 O   0  0  0  0  0  0  0  0  0  0  0  0
  109.8008  -18.4267   -4.2911 C   0  0  0  0  0  0  0  0  0  0  0  0
  111.5230  -16.3466   -1.6041 C   0  0  0  0  0  0  0  0  0  0  0  0
  1  2  1  1
  1  3  1  0
  1  8  1  0
 16  2  1  6
  3  4  1  6
  3  5  1  0
  5  6  1  0
  7  6  1  0
  8  7  1  0
  7  9  1  1
  9 10  1  0
 11 12  1  1
 13 11  1  0
 11 19  1  0
 14 13  1  0
 14 15  1  1
 14 16  1  0
 16 17  1  0
 17 18  1  1
 17 19  1  0
 19 20  1  1
 21 20  1  6
 21 22  1  0
 21 29  1  0
 22 23  1  6
 22 24  1  0
 24 25  1  1
 24 26  1  0
 25 31  1  0
 26 27  1  0
 26 28  1  0
 26 30  1  6
 28 29  1  0
M  CHG  5   4   1  10   1  12   1  15   1  25   1
M  END
$$$$
