
     RDKit          3D

 31 33  0  0  0  0  0  0  0  0999 V2000
  113.4845  -13.6022   -6.7554 C   0  0  2  0  0  0  0  0  0  0  0  0
  112.1451  -13.3492   -6.9015 O   0  0  0  0  0  0  0  0  0  0  0  0
  113.8566  -13.9103   -5.2985 C   0  0  2  0  0  0  0  0  0  0  0  0
  113.8986  -12.6941   -4.5052 N   0  0  0  0  0  4  0  0  0  0  0  0
  115.2703  -14.4552   -5.3406 C   0  0  0  0  0  0  0  0  0  0  0  0
  115.9486  -14.1683   -6.6535 C   0  0  0  0  0  0  0  0  0  0  0  0
  115.6016  -12.8289   -7.2191 C   0  0  2  0  0  0  0  0  0  0  0  0
  114.2643  -12.5011   -7.1154 O   0  0  0  0  0  0  0  0  0  0  0  0
  115.9314  -12.8654   -8.7106 C   0  0  0  0  0  0  0  0  0  0  0  0
  116.6250  -14.1066   -8.9752 N   0  0  0  0  0  4  0  0  0  0  0  0
  109.0587  -13.1522   -8.5526 C   0  0  2  0  0  0  0  0  0  0  0  0
  107.8807  -12.7601   -9.2883 N   0  0  0  0  0  4  0  0  0  0  0  0
  110.2512  -12.8116   -9.4014 C   0  0  0  0  0  0  0  0  0  0  0  0
  111.4614  -13.6166   -9.1536 C   0  0  2  0  0  0  0  0  0  0  0  0
  111.6567  -14.6165  -10.1932 N   0  0  0  0  0  4  0  0  0  0  0  0
  111.5695  -14.2445   -7.7974 C   0  0  2  0  0  0  0  0  0  0  0  0
  110.2732  -14.8102   -7.2845 C   0  0  2  0  0  0  0  0  0  0  0  0
  110.3801  -16.1603   -6.9355 O   0  0  0  0  0  0  0  0  0  0  0  0
  109.1145  -14.6301   -8.2438 C   0  0  1  0  0  0  0  0  0  0  0  0
  107.9744  -15.1000   -7.5928 O   0  0  0  0  0  0  0  0  0  0  0  0
  107.9679  -16.4718   -7.5606 C   0  0  2  0  0  0  0  0  0  0  0  0
  106.9426  -17.1006   -6.6822 C   0  0  2  0  0  0  0  0  0  0  0  0
  105.7370  -16.4596   -6.5991 O   0  0  0  0  0  0  0  0  0  0  0  0
  107.5260  -17.3393   -5.2858 C   0  0  1  0  0  0  0  0  0  0  0  0
  106.4379  -17.6348   -4.4049 N   0  0  0  0  0  4  0  0  0  0  0  0
  108.4939  -18.5081   -5.4416 C   0  0  1  0  0  0  0  0  0  0  0  0
  107.8761  -19.7296   -5.3374 O   0  0  0  0  0  0  0  0  0  0  0  0
  109.1628  -18.3028   -6.8045 C   0  0  0  0  0  0  0  0  0  0  0  0
  109.2242  -16.9156   -7.0722 O   0  0  0  0  0  0  0  0  0  0  0  0
  109.5597  -18.3693   -4.3825 C   0  0  0  0  0  0  0  0  0  0  0  0
  106.1205  -16.4308   -3.6326 C   0  0  0  0  0  0  0  0  0  0  0  0
  1  2  1  1
  1  3  1  0
  1  8  1  0
 16  2  1  1
  3  4  1  1
  3  5  1  0
  5  6  1  0
  7  6  1  0
  8  7  1  0
  7  9  1  6
  9 10  1  0
 11 12  1  6
 13 11  1  0
 11 19  1  0
 14 13  1  0
 14 15  1  6
 14 16  1  0
 16 17  1  0
 17 18  1  6
 17 19  1  0
 19 20  1  1
 21 20  1  1
 21 22  1  0
 21 29  1  0
 22 23  1  1
 22 24  1  0
 24 25  1  1
 24 26  1  0
 25 31  1  0
 26 27  1  0
 26 28  1  0
 26 30  1  1
 28 29  1  0
M  CHG  5   4   1  10   1  12   1  15   1  25   1
M  END
$$$$
