
     RDKit          3D

 31 33  0  0  0  0  0  0  0  0999 V2000
  106.7976  -15.0465   -9.6341 C   0  0  2  0  0  0  0  0  0  0  0  0
  108.1175  -15.4169   -9.6317 O   0  0  0  0  0  0  0  0  0  0  0  0
  105.9540  -15.9154   -8.6910 C   0  0  2  0  0  0  0  0  0  0  0  0
  105.6924  -17.2173   -9.2799 N   0  0  0  0  0  4  0  0  0  0  0  0
  104.6167  -15.2127   -8.5690 C   0  0  0  0  0  0  0  0  0  0  0  0
  104.4212  -14.1771   -9.6440 C   0  0  0  0  0  0  0  0  0  0  0  0
  104.9804  -14.5858  -10.9686 C   0  0  2  0  0  0  0  0  0  0  0  0
  106.2180  -15.1936  -10.8961 O   0  0  0  0  0  0  0  0  0  0  0  0
  105.1619  -13.3151  -11.7975 C   0  0  0  0  0  0  0  0  0  0  0  0
  104.5457  -12.2269  -11.0710 N   0  0  0  0  0  4  0  0  0  0  0  0
  111.6008  -15.2676   -9.2645 C   0  0  2  0  0  0  0  0  0  0  0  0
  113.0318  -15.4324   -9.3525 N   0  0  0  0  0  4  0  0  0  0  0  0
  111.0987  -14.9643  -10.6481 C   0  0  0  0  0  0  0  0  0  0  0  0
  109.8379  -14.2028  -10.7164 C   0  0  2  0  0  0  0  0  0  0  0  0
  110.0773  -12.8081  -11.0575 N   0  0  0  0  0  4  0  0  0  0  0  0
  108.9419  -14.3019   -9.5196 C   0  0  2  0  0  0  0  0  0  0  0  0
  109.6753  -14.2649   -8.2065 C   0  0  2  0  0  0  0  0  0  0  0  0
  109.2063  -13.2548   -7.3606 O   0  0  0  0  0  0  0  0  0  0  0  0
  111.1773  -14.1359   -8.3575 C   0  0  1  0  0  0  0  0  0  0  0  0
  111.7210  -14.2240   -7.0765 O   0  0  0  0  0  0  0  0  0  0  0  0
  112.5783  -13.1783   -6.8432 C   0  0  2  0  0  0  0  0  0  0  0  0
  113.8527  -13.5190   -6.1517 C   0  0  2  0  0  0  0  0  0  0  0  0
  114.4035  -14.7339   -6.4552 O   0  0  0  0  0  0  0  0  0  0  0  0
  113.6828  -13.3652   -4.6369 C   0  0  1  0  0  0  0  0  0  0  0  0
  114.8000  -14.0000   -4.0076 N   0  0  0  0  0  4  0  0  0  0  0  0
  113.6368  -11.8619   -4.3815 C   0  0  1  0  0  0  0  0  0  0  0  0
  114.8845  -11.3054   -4.2475 O   0  0  0  0  0  0  0  0  0  0  0  0
  112.8548  -11.2733   -5.5600 C   0  0  0  0  0  0  0  0  0  0  0  0
  111.9220  -12.2369   -6.0085 O   0  0  0  0  0  0  0  0  0  0  0  0
  112.8242  -11.6307   -3.1312 C   0  0  0  0  0  0  0  0  0  0  0  0
  114.4212  -15.3704   -3.6531 C   0  0  0  0  0  0  0  0  0  0  0  0
  1  2  1  6
  1  3  1  0
  1  8  1  0
 16  2  1  6
  3  4  1  6
  3  5  1  0
  5  6  1  0
  7  6  1  0
  8  7  1  0
  7  9  1  6
  9 10  1  0
 11 12  1  6
 13 11  1  0
 11 19  1  0
 14 13  1  0
 14 15  1  1
 14 16  1  0
 16 17  1  0
 17 18  1  1
 17 19  1  0
 19 20  1  1
 21 20  1  1
 21 22  1  0
 21 29  1  0
 22 23  1  1
 22 24  1  0
 24 25  1  1
 24 26  1  0
 25 31  1  0
 26 27  1  0
 26 28  1  0
 26 30  1  1
 28 29  1  0
M  CHG  5   4   1  10   1  12   1  15   1  25   1
M  END
$$$$
