
     RDKit          3D

 31 33  0  0  0  0  0  0  0  0999 V2000
  107.9258  -17.0231   -6.7503 C   0  0  2  0  0  0  0  0  0  0  0  0
  109.0625  -16.4048   -7.2031 O   0  0  0  0  0  0  0  0  0  0  0  0
  106.8113  -17.0237   -7.8057 C   0  0  2  0  0  0  0  0  0  0  0  0
  106.1830  -15.7172   -7.8977 N   0  0  0  0  0  4  0  0  0  0  0  0
  105.7563  -17.9822   -7.2903 C   0  0  0  0  0  0  0  0  0  0  0  0
  105.9429  -18.2978   -5.8303 C   0  0  0  0  0  0  0  0  0  0  0  0
  106.4059  -17.1262   -5.0257 C   0  0  2  0  0  0  0  0  0  0  0  0
  107.3871  -16.3723   -5.6383 O   0  0  0  0  0  0  0  0  0  0  0  0
  107.0125  -17.6724   -3.7341 C   0  0  0  0  0  0  0  0  0  0  0  0
  106.5216  -19.0212   -3.5562 N   0  0  0  0  0  4  0  0  0  0  0  0
  111.8664  -14.3686   -6.6714 C   0  0  2  0  0  0  0  0  0  0  0  0
  112.7993  -13.2871   -6.4653 N   0  0  0  0  0  4  0  0  0  0  0  0
  110.7767  -14.2219   -5.6469 C   0  0  0  0  0  0  0  0  0  0  0  0
  110.0755  -15.4656   -5.2789 C   0  0  2  0  0  0  0  0  0  0  0  0
  110.5162  -15.9607   -3.9830 N   0  0  0  0  0  4  0  0  0  0  0  0
  110.1052  -16.5652   -6.2963 C   0  0  2  0  0  0  0  0  0  0  0  0
  111.4359  -16.7248   -6.9800 C   0  0  2  0  0  0  0  0  0  0  0  0
  111.9408  -18.0244   -6.8704 O   0  0  0  0  0  0  0  0  0  0  0  0
  112.4818  -15.7381   -6.5029 C   0  0  1  0  0  0  0  0  0  0  0  0
  113.6131  -15.9346   -7.2941 O   0  0  0  0  0  0  0  0  0  0  0  0
  113.6926  -14.9729   -8.2697 C   0  0  2  0  0  0  0  0  0  0  0  0
  114.9836  -14.2355   -8.3577 C   0  0  2  0  0  0  0  0  0  0  0  0
  116.1147  -14.9545   -8.0837 O   0  0  0  0  0  0  0  0  0  0  0  0
  114.9235  -12.9713   -7.4943 C   0  0  1  0  0  0  0  0  0  0  0  0
  116.2592  -12.4786   -7.3516 N   0  0  0  0  0  4  0  0  0  0  0  0
  114.0149  -12.0049   -8.2475 C   0  0  1  0  0  0  0  0  0  0  0  0
  114.6859  -11.2678   -9.1913 O   0  0  0  0  0  0  0  0  0  0  0  0
  112.9122  -12.8759   -8.8579 C   0  0  0  0  0  0  0  0  0  0  0  0
  112.7001  -13.9912   -8.0147 O   0  0  0  0  0  0  0  0  0  0  0  0
  113.3695  -11.0926   -7.2336 C   0  0  0  0  0  0  0  0  0  0  0  0
  116.3846  -11.2367   -8.1189 C   0  0  0  0  0  0  0  0  0  0  0  0
  1  2  1  6
  1  3  1  0
  1  8  1  0
 16  2  1  6
  3  4  1  1
  3  5  1  0
  5  6  1  0
  7  6  1  0
  8  7  1  0
  7  9  1  1
  9 10  1  0
 11 12  1  1
 13 11  1  0
 11 19  1  0
 14 13  1  0
 14 15  1  1
 14 16  1  0
 16 17  1  0
 17 18  1  1
 17 19  1  0
 19 20  1  6
 21 20  1  1
 21 22  1  0
 21 29  1  0
 22 23  1  1
 22 24  1  0
 24 25  1  6
 24 26  1  0
 25 31  1  0
 26 27  1  0
 26 28  1  0
 26 30  1  1
 28 29  1  0
M  CHG  5   4   1  10   1  12   1  15   1  25   1
M  END
$$$$
