
     RDKit          3D

 31 33  0  0  0  0  0  0  0  0999 V2000
  108.8658  -13.8546  -11.6176 C   0  0  2  0  0  0  0  0  0  0  0  0
  110.0691  -14.2029  -11.0606 O   0  0  0  0  0  0  0  0  0  0  0  0
  108.5122  -14.7372  -12.8227 C   0  0  2  0  0  0  0  0  0  0  0  0
  109.2794  -14.3486  -13.9934 N   0  0  0  0  0  4  0  0  0  0  0  0
  107.0581  -14.4453  -13.1347 C   0  0  0  0  0  0  0  0  0  0  0  0
  106.5771  -13.1860  -12.4647 C   0  0  0  0  0  0  0  0  0  0  0  0
  107.6086  -12.1049  -12.4256 C   0  0  2  0  0  0  0  0  0  0  0  0
  108.8769  -12.5455  -12.1038 O   0  0  0  0  0  0  0  0  0  0  0  0
  107.1944  -11.1199  -11.3335 C   0  0  0  0  0  0  0  0  0  0  0  0
  107.0253  -11.8702  -10.1087 N   0  0  0  0  0  4  0  0  0  0  0  0
  113.2916  -13.5194   -9.8612 C   0  0  2  0  0  0  0  0  0  0  0  0
  114.7002  -13.2591   -9.6856 N   0  0  0  0  0  4  0  0  0  0  0  0
  112.7804  -12.5465  -10.8861 C   0  0  0  0  0  0  0  0  0  0  0  0
  111.3443  -12.2240  -10.7989 C   0  0  2  0  0  0  0  0  0  0  0  0
  111.1291  -10.9134  -10.2033 N   0  0  0  0  0  4  0  0  0  0  0  0
  110.4773  -13.2492  -10.1336 C   0  0  2  0  0  0  0  0  0  0  0  0
  111.0987  -13.8705   -8.9124 C   0  0  2  0  0  0  0  0  0  0  0  0
  110.2876  -13.7494   -7.7795 O   0  0  0  0  0  0  0  0  0  0  0  0
  112.4810  -13.3349   -8.5996 C   0  0  1  0  0  0  0  0  0  0  0  0
  112.9657  -14.0734   -7.5207 O   0  0  0  0  0  0  0  0  0  0  0  0
  112.4031  -13.6389   -6.3469 C   0  0  2  0  0  0  0  0  0  0  0  0
  113.2685  -13.7201   -5.1375 C   0  0  2  0  0  0  0  0  0  0  0  0
  114.6022  -13.4820   -5.3267 O   0  0  0  0  0  0  0  0  0  0  0  0
  113.0534  -15.0618   -4.4298 C   0  0  1  0  0  0  0  0  0  0  0  0
  114.1139  -15.2293   -3.4841 N   0  0  0  0  0  4  0  0  0  0  0  0
  111.6827  -14.9596   -3.7682 C   0  0  1  0  0  0  0  0  0  0  0  0
  111.7312  -14.3710   -2.5290 O   0  0  0  0  0  0  0  0  0  0  0  0
  110.8118  -14.1770   -4.7562 C   0  0  0  0  0  0  0  0  0  0  0  0
  111.2678  -14.4433   -6.0681 O   0  0  0  0  0  0  0  0  0  0  0  0
  111.1158  -16.3541   -3.6626 C   0  0  0  0  0  0  0  0  0  0  0  0
  114.1999  -14.0219   -2.6584 C   0  0  0  0  0  0  0  0  0  0  0  0
  1  2  1  6
  1  3  1  0
  1  8  1  0
 16  2  1  6
  3  4  1  6
  3  5  1  0
  5  6  1  0
  7  6  1  0
  8  7  1  0
  7  9  1  1
  9 10  1  0
 11 12  1  1
 13 11  1  0
 11 19  1  0
 14 13  1  0
 14 15  1  1
 14 16  1  0
 16 17  1  0
 17 18  1  1
 17 19  1  0
 19 20  1  1
 21 20  1  6
 21 22  1  0
 21 29  1  0
 22 23  1  6
 22 24  1  0
 24 25  1  1
 24 26  1  0
 25 31  1  0
 26 27  1  0
 26 28  1  0
 26 30  1  1
 28 29  1  0
M  CHG  5   4   1  10   1  12   1  15   1  25   1
M  END
$$$$
