
     RDKit          3D

 31 33  0  0  0  0  0  0  0  0999 V2000
  112.2621  -13.6182   -5.4070 C   0  0  2  0  0  0  0  0  0  0  0  0
  111.9624  -12.9136   -6.5441 O   0  0  0  0  0  0  0  0  0  0  0  0
  112.0177  -12.7922   -4.1365 C   0  0  2  0  0  0  0  0  0  0  0  0
  113.0808  -11.8229   -3.9353 N   0  0  0  0  0  4  0  0  0  0  0  0
  112.0962  -13.7744   -2.9849 C   0  0  0  0  0  0  0  0  0  0  0  0
  112.7348  -15.0751   -3.3928 C   0  0  0  0  0  0  0  0  0  0  0  0
  113.8592  -14.9042   -4.3627 C   0  0  2  0  0  0  0  0  0  0  0  0
  113.6090  -13.9841   -5.3613 O   0  0  0  0  0  0  0  0  0  0  0  0
  114.0763  -16.2516   -5.0499 C   0  0  0  0  0  0  0  0  0  0  0  0
  113.8020  -17.2875   -4.0785 N   0  0  0  0  0  4  0  0  0  0  0  0
  110.9628  -12.2217   -9.8324 C   0  0  2  0  0  0  0  0  0  0  0  0
  110.7253  -11.6611  -11.1408 N   0  0  0  0  0  4  0  0  0  0  0  0
  112.4497  -12.2392   -9.6154 C   0  0  0  0  0  0  0  0  0  0  0  0
  112.9447  -13.2582   -8.6717 C   0  0  2  0  0  0  0  0  0  0  0  0
  113.5547  -14.3792   -9.3718 N   0  0  0  0  0  4  0  0  0  0  0  0
  111.9595  -13.7502   -7.6557 C   0  0  2  0  0  0  0  0  0  0  0  0
  110.5752  -13.9635   -8.2050 C   0  0  2  0  0  0  0  0  0  0  0  0
  110.1041  -15.2606   -7.9783 O   0  0  0  0  0  0  0  0  0  0  0  0
  110.4538  -13.6360   -9.6792 C   0  0  1  0  0  0  0  0  0  0  0  0
  109.1075  -13.7760  -10.0145 O   0  0  0  0  0  0  0  0  0  0  0  0
  108.7408  -15.0981   -9.9972 C   0  0  2  0  0  0  0  0  0  0  0  0
  107.2839  -15.3748  -10.1350 C   0  0  2  0  0  0  0  0  0  0  0  0
  106.5794  -14.5329  -10.9514 O   0  0  0  0  0  0  0  0  0  0  0  0
  106.6337  -15.4551   -8.7501 C   0  0  1  0  0  0  0  0  0  0  0  0
  105.2156  -15.3976   -8.9318 N   0  0  0  0  0  4  0  0  0  0  0  0
  107.0997  -16.7807   -8.1562 C   0  0  1  0  0  0  0  0  0  0  0  0
  106.3117  -17.8399   -8.5323 O   0  0  0  0  0  0  0  0  0  0  0  0
  108.5541  -16.9405   -8.6105 C   0  0  0  0  0  0  0  0  0  0  0  0
  109.1266  -15.6550   -8.7503 O   0  0  0  0  0  0  0  0  0  0  0  0
  107.1020  -16.6383   -6.6540 C   0  0  0  0  0  0  0  0  0  0  0  0
  104.7706  -14.0195   -8.7089 C   0  0  0  0  0  0  0  0  0  0  0  0
  1  2  1  6
  1  3  1  0
  1  8  1  0
 16  2  1  1
  3  4  1  1
  3  5  1  0
  5  6  1  0
  7  6  1  0
  8  7  1  0
  7  9  1  6
  9 10  1  0
 11 12  1  6
 13 11  1  0
 11 19  1  0
 14 13  1  0
 14 15  1  6
 14 16  1  0
 16 17  1  0
 17 18  1  6
 17 19  1  0
 19 20  1  1
 21 20  1  1
 21 22  1  0
 21 29  1  0
 22 23  1  6
 22 24  1  0
 24 25  1  6
 24 26  1  0
 25 31  1  0
 26 27  1  0
 26 28  1  0
 26 30  1  1
 28 29  1  0
M  CHG  5   4   1  10   1  12   1  15   1  25   1
M  END
$$$$
