
     RDKit          3D

 31 33  0  0  0  0  0  0  0  0999 V2000
  110.3157  -14.2584  -12.1985 C   0  0  2  0  0  0  0  0  0  0  0  0
  111.2894  -13.8343  -11.3317 O   0  0  0  0  0  0  0  0  0  0  0  0
  110.8478  -15.2913  -13.2015 C   0  0  2  0  0  0  0  0  0  0  0  0
  111.6326  -14.6485  -14.2413 N   0  0  0  0  0  4  0  0  0  0  0  0
  109.6244  -15.8792  -13.8759 C   0  0  0  0  0  0  0  0  0  0  0  0
  108.3947  -15.0415  -13.6476 C   0  0  0  0  0  0  0  0  0  0  0  0
  108.6697  -13.5722  -13.6529 C   0  0  2  0  0  0  0  0  0  0  0  0
  109.8152  -13.2094  -12.9726 O   0  0  0  0  0  0  0  0  0  0  0  0
  107.5016  -12.8880  -12.9444 C   0  0  0  0  0  0  0  0  0  0  0  0
  106.3036  -13.1690  -13.7045 N   0  0  0  0  0  4  0  0  0  0  0  0
  112.8116  -12.2170   -8.6192 C   0  0  2  0  0  0  0  0  0  0  0  0
  113.5684  -11.3610   -7.7377 N   0  0  0  0  0  4  0  0  0  0  0  0
  111.9679  -11.3294   -9.4904 C   0  0  0  0  0  0  0  0  0  0  0  0
  110.7355  -11.9411  -10.0204 C   0  0  2  0  0  0  0  0  0  0  0  0
  109.5594  -11.4778   -9.2987 N   0  0  0  0  0  4  0  0  0  0  0  0
  110.7317  -13.4361  -10.1210 C   0  0  2  0  0  0  0  0  0  0  0  0
  111.3689  -14.1259   -8.9455 C   0  0  2  0  0  0  0  0  0  0  0  0
  110.5147  -15.0557   -8.3440 O   0  0  0  0  0  0  0  0  0  0  0  0
  111.8895  -13.1684   -7.8932 C   0  0  1  0  0  0  0  0  0  0  0  0
  112.5407  -13.9402   -6.9316 O   0  0  0  0  0  0  0  0  0  0  0  0
  111.6678  -14.3152   -5.9416 C   0  0  2  0  0  0  0  0  0  0  0  0
  112.2491  -14.4628   -4.5783 C   0  0  2  0  0  0  0  0  0  0  0  0
  113.2473  -13.5889   -4.2448 O   0  0  0  0  0  0  0  0  0  0  0  0
  112.7003  -15.9099   -4.3562 C   0  0  1  0  0  0  0  0  0  0  0  0
  113.5284  -15.9328   -3.1896 N   0  0  0  0  0  4  0  0  0  0  0  0
  111.4168  -16.7165   -4.1854 C   0  0  1  0  0  0  0  0  0  0  0  0
  110.9543  -16.7153   -2.8929 O   0  0  0  0  0  0  0  0  0  0  0  0
  110.4157  -16.1001   -5.1677 C   0  0  0  0  0  0  0  0  0  0  0  0
  111.1292  -15.5851   -6.2748 O   0  0  0  0  0  0  0  0  0  0  0  0
  111.6946  -18.1283   -4.6399 C   0  0  0  0  0  0  0  0  0  0  0  0
  114.8691  -16.3802   -3.5759 C   0  0  0  0  0  0  0  0  0  0  0  0
  1  2  1  1
  1  3  1  0
  1  8  1  0
 16  2  1  6
  3  4  1  6
  3  5  1  0
  5  6  1  0
  7  6  1  0
  8  7  1  0
  7  9  1  1
  9 10  1  0
 11 12  1  1
 13 11  1  0
 11 19  1  0
 14 13  1  0
 14 15  1  1
 14 16  1  0
 16 17  1  0
 17 18  1  1
 17 19  1  0
 19 20  1  1
 21 20  1  6
 21 22  1  0
 21 29  1  0
 22 23  1  6
 22 24  1  0
 24 25  1  1
 24 26  1  0
 25 31  1  0
 26 27  1  0
 26 28  1  0
 26 30  1  6
 28 29  1  0
M  CHG  5   4   1  10   1  12   1  15   1  25   1
M  END
$$$$
