
     RDKit          3D

 31 33  0  0  0  0  0  0  0  0999 V2000
  111.8374  -13.8178   -7.3422 C   0  0  2  0  0  0  0  0  0  0  0  0
  111.0388  -14.8353   -7.7965 O   0  0  0  0  0  0  0  0  0  0  0  0
  111.0537  -12.5117   -7.1524 C   0  0  2  0  0  0  0  0  0  0  0  0
  110.7952  -11.8713   -8.4304 N   0  0  0  0  0  4  0  0  0  0  0  0
  111.9727  -11.5886   -6.3774 C   0  0  0  0  0  0  0  0  0  0  0  0
  113.3989  -12.0702   -6.3878 C   0  0  0  0  0  0  0  0  0  0  0  0
  113.8080  -12.6815   -7.6891 C   0  0  2  0  0  0  0  0  0  0  0  0
  112.8574  -13.5135   -8.2461 O   0  0  0  0  0  0  0  0  0  0  0  0
  115.0422  -13.5411   -7.4200 C   0  0  0  0  0  0  0  0  0  0  0  0
  115.5508  -13.1802   -6.1150 N   0  0  0  0  0  4  0  0  0  0  0  0
  109.3823  -17.9192   -7.9863 C   0  0  2  0  0  0  0  0  0  0  0  0
  108.8684  -19.2189   -8.3460 N   0  0  0  0  0  4  0  0  0  0  0  0
  110.8822  -18.0057   -8.0184 C   0  0  0  0  0  0  0  0  0  0  0  0
  111.5951  -17.0465   -7.1549 C   0  0  2  0  0  0  0  0  0  0  0  0
  112.1003  -17.6893   -5.9506 N   0  0  0  0  0  4  0  0  0  0  0  0
  110.8508  -15.7938   -6.8058 C   0  0  2  0  0  0  0  0  0  0  0  0
  109.3953  -16.0175   -6.4978 C   0  0  2  0  0  0  0  0  0  0  0  0
  109.0318  -15.5194   -5.2425 O   0  0  0  0  0  0  0  0  0  0  0  0
  108.9719  -17.4683   -6.6040 C   0  0  1  0  0  0  0  0  0  0  0  0
  107.5928  -17.5024   -6.4004 O   0  0  0  0  0  0  0  0  0  0  0  0
  107.2810  -18.3212   -5.3443 C   0  0  2  0  0  0  0  0  0  0  0  0
  105.8482  -18.3487   -4.9387 C   0  0  2  0  0  0  0  0  0  0  0  0
  104.9288  -18.2357   -5.9453 O   0  0  0  0  0  0  0  0  0  0  0  0
  105.5923  -17.2996   -3.8519 C   0  0  1  0  0  0  0  0  0  0  0  0
  104.1760  -17.1387   -3.7280 N   0  0  0  0  0  4  0  0  0  0  0  0
  106.2364  -17.8568   -2.5863 C   0  0  1  0  0  0  0  0  0  0  0  0
  105.4066  -18.7033   -1.8940 O   0  0  0  0  0  0  0  0  0  0  0  0
  107.5214  -18.5472   -3.0545 C   0  0  0  0  0  0  0  0  0  0  0  0
  108.0000  -17.8772   -4.2042 O   0  0  0  0  0  0  0  0  0  0  0  0
  106.6342  -16.6887   -1.7178 C   0  0  0  0  0  0  0  0  0  0  0  0
  103.5282  -18.4040   -4.0836 C   0  0  0  0  0  0  0  0  0  0  0  0
  1  2  1  6
  1  3  1  0
  1  8  1  0
 16  2  1  6
  3  4  1  6
  3  5  1  0
  5  6  1  0
  7  6  1  0
  8  7  1  0
  7  9  1  1
  9 10  1  0
 11 12  1  1
 13 11  1  0
 11 19  1  0
 14 13  1  0
 14 15  1  1
 14 16  1  0
 16 17  1  0
 17 18  1  1
 17 19  1  0
 19 20  1  6
 21 20  1  6
 21 22  1  0
 21 29  1  0
 22 23  1  6
 22 24  1  0
 24 25  1  1
 24 26  1  0
 25 31  1  0
 26 27  1  0
 26 28  1  0
 26 30  1  1
 28 29  1  0
M  CHG  5   4   1  10   1  12   1  15   1  25   1
M  END
$$$$
