
     RDKit          3D

 31 33  0  0  0  0  0  0  0  0999 V2000
  113.4126  -14.5935   -8.6638 C   0  0  2  0  0  0  0  0  0  0  0  0
  112.8730  -15.5679   -7.8646 O   0  0  0  0  0  0  0  0  0  0  0  0
  112.5495  -14.3227   -9.9039 C   0  0  2  0  0  0  0  0  0  0  0  0
  112.7222  -15.3704  -10.8952 N   0  0  0  0  0  4  0  0  0  0  0  0
  113.0945  -13.0471  -10.5148 C   0  0  0  0  0  0  0  0  0  0  0  0
  114.4564  -12.6985   -9.9763 C   0  0  0  0  0  0  0  0  0  0  0  0
  115.3229  -13.8931   -9.7388 C   0  0  2  0  0  0  0  0  0  0  0  0
  114.6678  -14.9591   -9.1548 O   0  0  0  0  0  0  0  0  0  0  0  0
  116.4258  -13.4699   -8.7698 C   0  0  0  0  0  0  0  0  0  0  0  0
  115.9930  -12.2534   -8.1183 N   0  0  0  0  0  4  0  0  0  0  0  0
  112.7450  -16.3188   -4.4426 C   0  0  2  0  0  0  0  0  0  0  0  0
  113.0205  -16.6207   -3.0585 N   0  0  0  0  0  4  0  0  0  0  0  0
  113.4952  -15.0626   -4.7852 C   0  0  0  0  0  0  0  0  0  0  0  0
  112.9310  -14.2634   -5.8884 C   0  0  2  0  0  0  0  0  0  0  0  0
  112.2278  -13.0906   -5.3894 N   0  0  0  0  0  4  0  0  0  0  0  0
  112.0777  -15.0057   -6.8712 C   0  0  2  0  0  0  0  0  0  0  0  0
  111.1586  -16.0145   -6.2378 C   0  0  2  0  0  0  0  0  0  0  0  0
  109.8195  -15.8100   -6.5856 O   0  0  0  0  0  0  0  0  0  0  0  0
  111.2811  -16.0791   -4.7291 C   0  0  1  0  0  0  0  0  0  0  0  0
  110.4585  -17.1206   -4.3013 O   0  0  0  0  0  0  0  0  0  0  0  0
  109.1973  -16.6567   -4.0238 C   0  0  2  0  0  0  0  0  0  0  0  0
  108.1176  -17.6818   -3.9822 C   0  0  2  0  0  0  0  0  0  0  0  0
  108.4635  -18.9098   -3.4887 O   0  0  0  0  0  0  0  0  0  0  0  0
  107.4714  -17.8167   -5.3648 C   0  0  1  0  0  0  0  0  0  0  0  0
  106.6834  -19.0109   -5.3615 N   0  0  0  0  0  4  0  0  0  0  0  0
  106.6324  -16.5559   -5.5485 C   0  0  1  0  0  0  0  0  0  0  0  0
  105.3764  -16.6675   -5.0059 O   0  0  0  0  0  0  0  0  0  0  0  0
  107.4494  -15.4277   -4.9107 C   0  0  0  0  0  0  0  0  0  0  0  0
  108.8232  -15.7379   -5.0385 O   0  0  0  0  0  0  0  0  0  0  0  0
  106.5397  -16.2745   -7.0281 C   0  0  0  0  0  0  0  0  0  0  0  0
  105.2731  -18.6408   -5.2161 C   0  0  0  0  0  0  0  0  0  0  0  0
  1  2  1  6
  1  3  1  0
  1  8  1  0
 16  2  1  6
  3  4  1  6
  3  5  1  0
  5  6  1  0
  7  6  1  0
  8  7  1  0
  7  9  1  1
  9 10  1  0
 11 12  1  1
 13 11  1  0
 11 19  1  0
 14 13  1  0
 14 15  1  1
 14 16  1  0
 16 17  1  0
 17 18  1  1
 17 19  1  0
 19 20  1  6
 21 20  1  6
 21 22  1  0
 21 29  1  0
 22 23  1  6
 22 24  1  0
 24 25  1  1
 24 26  1  0
 25 31  1  0
 26 27  1  0
 26 28  1  0
 26 30  1  6
 28 29  1  0
M  CHG  5   4   1  10   1  12   1  15   1  25   1
M  END
$$$$
