
     RDKit          3D

 31 33  0  0  0  0  0  0  0  0999 V2000
  108.9089  -16.4464   -6.7037 C   0  0  2  0  0  0  0  0  0  0  0  0
  109.2658  -15.1847   -7.1038 O   0  0  0  0  0  0  0  0  0  0  0  0
  109.8499  -17.5181   -7.2714 C   0  0  2  0  0  0  0  0  0  0  0  0
  109.5610  -17.7731   -8.6719 N   0  0  0  0  0  4  0  0  0  0  0  0
  109.5254  -18.7924   -6.5177 C   0  0  0  0  0  0  0  0  0  0  0  0
  108.2112  -18.7003   -5.7894 C   0  0  0  0  0  0  0  0  0  0  0  0
  107.1675  -17.9421   -6.5445 C   0  0  2  0  0  0  0  0  0  0  0  0
  107.6331  -16.7935   -7.1530 O   0  0  0  0  0  0  0  0  0  0  0  0
  106.1036  -17.5069   -5.5379 C   0  0  0  0  0  0  0  0  0  0  0  0
  105.0354  -16.8715   -6.2774 N   0  0  0  0  0  4  0  0  0  0  0  0
  110.9822  -12.1362   -7.3304 C   0  0  2  0  0  0  0  0  0  0  0  0
  111.3945  -10.7534   -7.3505 N   0  0  0  0  0  4  0  0  0  0  0  0
  110.3069  -12.3835   -6.0108 C   0  0  0  0  0  0  0  0  0  0  0  0
  110.3381  -13.7768   -5.5295 C   0  0  2  0  0  0  0  0  0  0  0  0
  111.3223  -13.9516   -4.4714 N   0  0  0  0  0  4  0  0  0  0  0  0
  110.5052  -14.8334   -6.5786 C   0  0  2  0  0  0  0  0  0  0  0  0
  111.4975  -14.4737   -7.6508 C   0  0  2  0  0  0  0  0  0  0  0  0
  112.5033  -15.4351   -7.7925 O   0  0  0  0  0  0  0  0  0  0  0  0
  112.1298  -13.1109   -7.4554 C   0  0  1  0  0  0  0  0  0  0  0  0
  112.9337  -12.8751   -8.5702 O   0  0  0  0  0  0  0  0  0  0  0  0
  114.2181  -12.5827   -8.1858 C   0  0  2  0  0  0  0  0  0  0  0  0
  115.1518  -12.1828   -9.2750 C   0  0  2  0  0  0  0  0  0  0  0  0
  114.6149  -11.4506  -10.2982 O   0  0  0  0  0  0  0  0  0  0  0  0
  115.8817  -13.4159   -9.8169 C   0  0  1  0  0  0  0  0  0  0  0  0
  116.5086  -13.0438  -11.0481 N   0  0  0  0  0  4  0  0  0  0  0  0
  116.8862  -13.8039   -8.7364 C   0  0  1  0  0  0  0  0  0  0  0  0
  118.0715  -13.1192   -8.8395 O   0  0  0  0  0  0  0  0  0  0  0  0
  116.1722  -13.5446   -7.4060 C   0  0  0  0  0  0  0  0  0  0  0  0
  114.7843  -13.7411   -7.5932 O   0  0  0  0  0  0  0  0  0  0  0  0
  117.1295  -15.2893   -8.8440 C   0  0  0  0  0  0  0  0  0  0  0  0
  115.6233  -13.4150  -12.1551 C   0  0  0  0  0  0  0  0  0  0  0  0
  1  2  1  6
  1  3  1  0
  1  8  1  0
 16  2  1  6
  3  4  1  6
  3  5  1  0
  5  6  1  0
  7  6  1  0
  8  7  1  0
  7  9  1  1
  9 10  1  0
 11 12  1  1
 13 11  1  0
 11 19  1  0
 14 13  1  0
 14 15  1  1
 14 16  1  0
 16 17  1  0
 17 18  1  1
 17 19  1  0
 19 20  1  6
 21 20  1  6
 21 22  1  0
 21 29  1  0
 22 23  1  6
 22 24  1  0
 24 25  1  6
 24 26  1  0
 25 31  1  0
 26 27  1  0
 26 28  1  0
 26 30  1  6
 28 29  1  0
M  CHG  5   4   1  10   1  12   1  15   1  25   1
M  END
$$$$
