
     RDKit          3D

 31 33  0  0  0  0  0  0  0  0999 V2000
  110.1194  -14.7401  -11.1979 C   0  0  2  0  0  0  0  0  0  0  0  0
  111.2642  -14.9590  -10.4761 O   0  0  0  0  0  0  0  0  0  0  0  0
  108.8837  -15.3412  -10.5138 C   0  0  2  0  0  0  0  0  0  0  0  0
  108.8402  -16.7819  -10.6941 N   0  0  0  0  0  4  0  0  0  0  0  0
  107.6873  -14.7710  -11.2492 C   0  0  0  0  0  0  0  0  0  0  0  0
  108.0736  -14.1568  -12.5681 C   0  0  0  0  0  0  0  0  0  0  0  0
  109.1519  -14.9096  -13.2788 C   0  0  2  0  0  0  0  0  0  0  0  0
  110.1766  -15.3381  -12.4585 O   0  0  0  0  0  0  0  0  0  0  0  0
  109.7739  -13.9583  -14.2999 C   0  0  0  0  0  0  0  0  0  0  0  0
  110.5446  -14.7559  -15.2282 N   0  0  0  0  0  4  0  0  0  0  0  0
  114.3134  -13.4552   -9.6210 C   0  0  2  0  0  0  0  0  0  0  0  0
  115.6222  -12.8477   -9.5935 N   0  0  0  0  0  4  0  0  0  0  0  0
  113.4786  -12.6772  -10.5988 C   0  0  0  0  0  0  0  0  0  0  0  0
  112.0229  -12.7177  -10.3686 C   0  0  2  0  0  0  0  0  0  0  0  0
  111.5451  -11.4804   -9.7687 N   0  0  0  0  0  4  0  0  0  0  0  0
  111.5083  -13.9008   -9.6066 C   0  0  2  0  0  0  0  0  0  0  0  0
  112.3802  -14.3039   -8.4486 C   0  0  2  0  0  0  0  0  0  0  0  0
  111.6777  -14.3464   -7.2400 O   0  0  0  0  0  0  0  0  0  0  0  0
  113.6079  -13.4315   -8.2851 C   0  0  1  0  0  0  0  0  0  0  0  0
  114.3637  -13.9872   -7.2534 O   0  0  0  0  0  0  0  0  0  0  0  0
  114.0446  -13.4037   -6.0531 C   0  0  2  0  0  0  0  0  0  0  0  0
  114.1479  -14.2788   -4.8524 C   0  0  2  0  0  0  0  0  0  0  0  0
  115.1557  -15.2037   -4.8587 O   0  0  0  0  0  0  0  0  0  0  0  0
  112.7987  -14.9505   -4.5774 C   0  0  1  0  0  0  0  0  0  0  0  0
  113.0222  -16.0060   -3.6377 N   0  0  0  0  0  4  0  0  0  0  0  0
  111.8988  -13.8492   -4.0257 C   0  0  1  0  0  0  0  0  0  0  0  0
  112.0337  -13.6794   -2.6702 O   0  0  0  0  0  0  0  0  0  0  0  0
  112.2682  -12.5891   -4.8148 C   0  0  0  0  0  0  0  0  0  0  0  0
  112.6929  -12.9749   -6.1074 O   0  0  0  0  0  0  0  0  0  0  0  0
  110.4726  -14.2030   -4.3689 C   0  0  0  0  0  0  0  0  0  0  0  0
  114.1409  -15.6305   -2.7692 C   0  0  0  0  0  0  0  0  0  0  0  0
  1  2  1  1
  1  3  1  0
  1  8  1  0
 16  2  1  6
  3  4  1  6
  3  5  1  0
  5  6  1  0
  7  6  1  0
  8  7  1  0
  7  9  1  6
  9 10  1  0
 11 12  1  1
 13 11  1  0
 11 19  1  0
 14 13  1  0
 14 15  1  1
 14 16  1  0
 16 17  1  0
 17 18  1  1
 17 19  1  0
 19 20  1  1
 21 20  1  6
 21 22  1  0
 21 29  1  0
 22 23  1  6
 22 24  1  0
 24 25  1  1
 24 26  1  0
 25 31  1  0
 26 27  1  0
 26 28  1  0
 26 30  1  1
 28 29  1  0
M  CHG  5   4   1  10   1  12   1  15   1  25   1
M  END
$$$$
