
     RDKit          3D

 31 33  0  0  0  0  0  0  0  0999 V2000
  113.4534  -13.7489   -7.4994 C   0  0  2  0  0  0  0  0  0  0  0  0
  112.5782  -14.3041   -8.3967 O   0  0  0  0  0  0  0  0  0  0  0  0
  114.8137  -13.4378   -8.1391 C   0  0  2  0  0  0  0  0  0  0  0  0
  115.5980  -14.6491   -8.3056 N   0  0  0  0  0  4  0  0  0  0  0  0
  115.5516  -12.5719   -7.1377 C   0  0  0  0  0  0  0  0  0  0  0  0
  114.9192  -12.6209   -5.7725 C   0  0  0  0  0  0  0  0  0  0  0  0
  114.3940  -13.9730   -5.4113 C   0  0  2  0  0  0  0  0  0  0  0  0
  113.7287  -14.6134   -6.4378 O   0  0  0  0  0  0  0  0  0  0  0  0
  113.3819  -13.7815   -4.2827 C   0  0  0  0  0  0  0  0  0  0  0  0
  113.9203  -12.7923   -3.3753 N   0  0  0  0  0  4  0  0  0  0  0  0
  109.2778  -14.4739   -9.5667 C   0  0  2  0  0  0  0  0  0  0  0  0
  107.8642  -14.6916   -9.7593 N   0  0  0  0  0  4  0  0  0  0  0  0
  109.4465  -13.7582   -8.2561 C   0  0  0  0  0  0  0  0  0  0  0  0
  110.6635  -12.9352   -8.1308 C   0  0  2  0  0  0  0  0  0  0  0  0
  110.3639  -11.5181   -8.2750 N   0  0  0  0  0  4  0  0  0  0  0  0
  111.8127  -13.3189   -9.0123 C   0  0  2  0  0  0  0  0  0  0  0  0
  111.4057  -13.7028  -10.4089 C   0  0  2  0  0  0  0  0  0  0  0  0
  112.0680  -12.9508  -11.3845 O   0  0  0  0  0  0  0  0  0  0  0  0
  109.9112  -13.6258  -10.6447 C   0  0  1  0  0  0  0  0  0  0  0  0
  109.6800  -14.1089  -11.9322 O   0  0  0  0  0  0  0  0  0  0  0  0
  110.0536  -13.1799  -12.8705 C   0  0  2  0  0  0  0  0  0  0  0  0
  109.4440  -11.8281  -12.7314 C   0  0  2  0  0  0  0  0  0  0  0  0
  109.2273  -11.3870  -11.4548 O   0  0  0  0  0  0  0  0  0  0  0  0
  108.1563  -11.7478  -13.5575 C   0  0  1  0  0  0  0  0  0  0  0  0
  107.4488  -10.5740  -13.1467 N   0  0  0  0  0  4  0  0  0  0  0  0
  108.6079  -11.6859  -15.0133 C   0  0  1  0  0  0  0  0  0  0  0  0
  108.8946  -10.4094  -15.4289 O   0  0  0  0  0  0  0  0  0  0  0  0
  109.8200  -12.6186  -15.1027 C   0  0  0  0  0  0  0  0  0  0  0  0
  109.6644  -13.6527  -14.1506 O   0  0  0  0  0  0  0  0  0  0  0  0
  107.5104  -12.2782  -15.8628 C   0  0  0  0  0  0  0  0  0  0  0  0
  106.5809  -10.9213  -12.0184 C   0  0  0  0  0  0  0  0  0  0  0  0
  1  2  1  6
  1  3  1  0
  1  8  1  0
 16  2  1  1
  3  4  1  1
  3  5  1  0
  5  6  1  0
  7  6  1  0
  8  7  1  0
  7  9  1  1
  9 10  1  0
 11 12  1  6
 13 11  1  0
 11 19  1  0
 14 13  1  0
 14 15  1  6
 14 16  1  0
 16 17  1  0
 17 18  1  6
 17 19  1  0
 19 20  1  6
 21 20  1  1
 21 22  1  0
 21 29  1  0
 22 23  1  1
 22 24  1  0
 24 25  1  1
 24 26  1  0
 25 31  1  0
 26 27  1  0
 26 28  1  0
 26 30  1  6
 28 29  1  0
M  CHG  5   4   1  10   1  12   1  15   1  25   1
M  END
$$$$
