
     RDKit          3D

 31 33  0  0  0  0  0  0  0  0999 V2000
  114.5211  -13.5477   -9.1601 C   0  0  2  0  0  0  0  0  0  0  0  0
  113.2576  -14.0709   -9.2561 O   0  0  0  0  0  0  0  0  0  0  0  0
  115.2574  -13.5704  -10.5068 C   0  0  2  0  0  0  0  0  0  0  0  0
  115.7280  -14.9089  -10.8184 N   0  0  0  0  0  4  0  0  0  0  0  0
  116.4880  -12.7059  -10.3183 C   0  0  0  0  0  0  0  0  0  0  0  0
  116.7797  -12.4457   -8.8645 C   0  0  0  0  0  0  0  0  0  0  0  0
  116.4978  -13.6206   -7.9845 C   0  0  2  0  0  0  0  0  0  0  0  0
  115.3230  -14.2815   -8.2834 O   0  0  0  0  0  0  0  0  0  0  0  0
  116.3568  -13.0960   -6.5564 C   0  0  0  0  0  0  0  0  0  0  0  0
  117.2983  -12.0102   -6.3940 N   0  0  0  0  0  4  0  0  0  0  0  0
  109.8257  -14.5488   -8.7227 C   0  0  2  0  0  0  0  0  0  0  0  0
  108.5112  -15.0330   -8.3761 N   0  0  0  0  0  4  0  0  0  0  0  0
  110.6739  -14.6298   -7.4848 C   0  0  0  0  0  0  0  0  0  0  0  0
  111.8058  -13.6869   -7.4243 C   0  0  2  0  0  0  0  0  0  0  0  0
  111.5223  -12.5728   -6.5313 N   0  0  0  0  0  4  0  0  0  0  0  0
  112.3171  -13.1849   -8.7402 C   0  0  2  0  0  0  0  0  0  0  0  0
  111.2318  -12.8645   -9.7317 C   0  0  2  0  0  0  0  0  0  0  0  0
  111.3162  -11.5536  -10.2116 O   0  0  0  0  0  0  0  0  0  0  0  0
  109.8355  -13.1155   -9.2002 C   0  0  1  0  0  0  0  0  0  0  0  0
  108.9537  -12.8804  -10.2546 O   0  0  0  0  0  0  0  0  0  0  0  0
  108.3345  -11.6651  -10.1040 C   0  0  2  0  0  0  0  0  0  0  0  0
  106.8542  -11.7006   -9.9433 C   0  0  2  0  0  0  0  0  0  0  0  0
  106.3431  -12.7622   -9.2482 O   0  0  0  0  0  0  0  0  0  0  0  0
  106.1767  -11.5730  -11.3115 C   0  0  1  0  0  0  0  0  0  0  0  0
  104.8009  -11.9312  -11.1502 N   0  0  0  0  0  4  0  0  0  0  0  0
  106.3631  -10.1166  -11.7255 C   0  0  1  0  0  0  0  0  0  0  0  0
  105.3894   -9.2903  -11.2222 O   0  0  0  0  0  0  0  0  0  0  0  0
  107.7656   -9.7333  -11.2427 C   0  0  0  0  0  0  0  0  0  0  0  0
  108.5816  -10.8881  -11.2654 O   0  0  0  0  0  0  0  0  0  0  0  0
  106.3669  -10.0621  -13.2335 C   0  0  0  0  0  0  0  0  0  0  0  0
  104.7058  -13.3899  -11.0486 C   0  0  0  0  0  0  0  0  0  0  0  0
  1  2  1  6
  1  3  1  0
  1  8  1  0
 16  2  1  6
  3  4  1  1
  3  5  1  0
  5  6  1  0
  7  6  1  0
  8  7  1  0
  7  9  1  1
  9 10  1  0
 11 12  1  1
 13 11  1  0
 11 19  1  0
 14 13  1  0
 14 15  1  1
 14 16  1  0
 16 17  1  0
 17 18  1  1
 17 19  1  0
 19 20  1  6
 21 20  1  6
 21 22  1  0
 21 29  1  0
 22 23  1  6
 22 24  1  0
 24 25  1  1
 24 26  1  0
 25 31  1  0
 26 27  1  0
 26 28  1  0
 26 30  1  6
 28 29  1  0
M  CHG  5   4   1  10   1  12   1  15   1  25   1
M  END
$$$$
