
     RDKit          3D

 31 33  0  0  0  0  0  0  0  0999 V2000
  108.7678  -14.1945  -10.6259 C   0  0  2  0  0  0  0  0  0  0  0  0
  110.0710  -14.4988  -10.3284 O   0  0  0  0  0  0  0  0  0  0  0  0
  107.8008  -15.2960  -10.1701 C   0  0  2  0  0  0  0  0  0  0  0  0
  107.8457  -16.4325  -11.0736 N   0  0  0  0  0  4  0  0  0  0  0  0
  106.4125  -14.6991  -10.2851 C   0  0  0  0  0  0  0  0  0  0  0  0
  106.4016  -13.4488  -11.1235 C   0  0  0  0  0  0  0  0  0  0  0  0
  107.3338  -13.5100  -12.2903 C   0  0  2  0  0  0  0  0  0  0  0  0
  108.5647  -14.0648  -12.0015 O   0  0  0  0  0  0  0  0  0  0  0  0
  107.5934  -12.0734  -12.7413 C   0  0  0  0  0  0  0  0  0  0  0  0
  108.0144  -12.1183  -14.1243 N   0  0  0  0  0  4  0  0  0  0  0  0
  113.3891  -13.4768   -9.8424 C   0  0  2  0  0  0  0  0  0  0  0  0
  114.7553  -13.0298   -9.9705 N   0  0  0  0  0  4  0  0  0  0  0  0
  112.5233  -12.4853  -10.5674 C   0  0  0  0  0  0  0  0  0  0  0  0
  111.1290  -12.3922  -10.0973 C   0  0  2  0  0  0  0  0  0  0  0  0
  110.9197  -11.2010   -9.2872 N   0  0  0  0  0  4  0  0  0  0  0  0
  110.5864  -13.6015   -9.3985 C   0  0  2  0  0  0  0  0  0  0  0  0
  111.5665  -14.2523   -8.4608 C   0  0  2  0  0  0  0  0  0  0  0  0
  111.0617  -14.3777   -7.1625 O   0  0  0  0  0  0  0  0  0  0  0  0
  112.9099  -13.5537   -8.4116 C   0  0  1  0  0  0  0  0  0  0  0  0
  113.7364  -14.3247   -7.5948 O   0  0  0  0  0  0  0  0  0  0  0  0
  114.0528  -13.6424   -6.4471 C   0  0  2  0  0  0  0  0  0  0  0  0
  114.1817  -14.4646   -5.2119 C   0  0  2  0  0  0  0  0  0  0  0  0
  114.7054  -15.7187   -5.3678 O   0  0  0  0  0  0  0  0  0  0  0  0
  112.8359  -14.5270   -4.4826 C   0  0  1  0  0  0  0  0  0  0  0  0
  112.9198  -15.5669   -3.5036 N   0  0  0  0  0  4  0  0  0  0  0  0
  112.6426  -13.1465   -3.8628 C   0  0  1  0  0  0  0  0  0  0  0  0
  113.2451  -13.0240   -2.6354 O   0  0  0  0  0  0  0  0  0  0  0  0
  113.1997  -12.1575   -4.8916 C   0  0  0  0  0  0  0  0  0  0  0  0
  113.0219  -12.7034   -6.1840 O   0  0  0  0  0  0  0  0  0  0  0  0
  111.1591  -12.8972   -3.7442 C   0  0  0  0  0  0  0  0  0  0  0  0
  112.2555  -16.7615   -4.0313 C   0  0  0  0  0  0  0  0  0  0  0  0
  1  2  1  6
  1  3  1  0
  1  8  1  0
 16  2  1  6
  3  4  1  6
  3  5  1  0
  5  6  1  0
  7  6  1  0
  8  7  1  0
  7  9  1  1
  9 10  1  0
 11 12  1  1
 13 11  1  0
 11 19  1  0
 14 13  1  0
 14 15  1  1
 14 16  1  0
 16 17  1  0
 17 18  1  1
 17 19  1  0
 19 20  1  1
 21 20  1  6
 21 22  1  0
 21 29  1  0
 22 23  1  6
 22 24  1  0
 24 25  1  1
 24 26  1  0
 25 31  1  0
 26 27  1  0
 26 28  1  0
 26 30  1  1
 28 29  1  0
M  CHG  5   4   1  10   1  12   1  15   1  25   1
M  END
$$$$
