
     RDKit          3D

 31 33  0  0  0  0  0  0  0  0999 V2000
  106.5625  -13.3421   -9.2124 C   0  0  2  0  0  0  0  0  0  0  0  0
  107.8632  -13.6084   -9.5539 O   0  0  0  0  0  0  0  0  0  0  0  0
  105.8106  -14.6079   -8.7782 C   0  0  2  0  0  0  0  0  0  0  0  0
  105.4471  -15.4161   -9.9292 N   0  0  0  0  0  4  0  0  0  0  0  0
  104.5160  -14.1250   -8.1552 C   0  0  0  0  0  0  0  0  0  0  0  0
  104.2256  -12.6877   -8.4958 C   0  0  0  0  0  0  0  0  0  0  0  0
  104.6162  -12.3191   -9.8908 C   0  0  2  0  0  0  0  0  0  0  0  0
  105.8368  -12.8271  -10.2886 O   0  0  0  0  0  0  0  0  0  0  0  0
  104.7349  -10.7967   -9.9429 C   0  0  0  0  0  0  0  0  0  0  0  0
  103.3985  -10.2503   -9.8579 N   0  0  0  0  0  4  0  0  0  0  0  0
  111.3647  -13.4719   -9.6609 C   0  0  2  0  0  0  0  0  0  0  0  0
  112.7569  -13.3704  -10.0272 N   0  0  0  0  0  4  0  0  0  0  0  0
  110.6691  -12.2545  -10.2015 C   0  0  0  0  0  0  0  0  0  0  0  0
  109.4462  -11.8477   -9.4851 C   0  0  2  0  0  0  0  0  0  0  0  0
  109.6892  -10.6937   -8.6319 N   0  0  0  0  0  4  0  0  0  0  0  0
  108.7415  -12.9253   -8.7187 C   0  0  2  0  0  0  0  0  0  0  0  0
  109.6691  -13.8547   -7.9844 C   0  0  2  0  0  0  0  0  0  0  0  0
  109.3790  -13.9302   -6.6183 O   0  0  0  0  0  0  0  0  0  0  0  0
  111.1341  -13.5151   -8.1683 C   0  0  1  0  0  0  0  0  0  0  0  0
  111.8642  -14.5152   -7.5270 O   0  0  0  0  0  0  0  0  0  0  0  0
  111.7273  -14.4148   -6.1654 C   0  0  2  0  0  0  0  0  0  0  0  0
  112.9430  -13.9938   -5.4150 C   0  0  2  0  0  0  0  0  0  0  0  0
  113.7596  -13.0900   -6.0377 O   0  0  0  0  0  0  0  0  0  0  0  0
  113.7379  -15.2268   -4.9734 C   0  0  1  0  0  0  0  0  0  0  0  0
  115.0311  -14.7824   -4.5525 N   0  0  0  0  0  4  0  0  0  0  0  0
  112.9295  -15.8496   -3.8396 C   0  0  1  0  0  0  0  0  0  0  0  0
  113.2098  -15.2930   -2.6165 O   0  0  0  0  0  0  0  0  0  0  0  0
  111.4619  -15.6732   -4.2423 C   0  0  0  0  0  0  0  0  0  0  0  0
  111.3764  -15.6911   -5.6538 O   0  0  0  0  0  0  0  0  0  0  0  0
  113.2246  -17.3293   -3.8206 C   0  0  0  0  0  0  0  0  0  0  0  0
  115.1862  -15.0777   -3.1258 C   0  0  0  0  0  0  0  0  0  0  0  0
  1  2  1  6
  1  3  1  0
  1  8  1  0
 16  2  1  6
  3  4  1  6
  3  5  1  0
  5  6  1  0
  7  6  1  0
  8  7  1  0
  7  9  1  1
  9 10  1  0
 11 12  1  1
 13 11  1  0
 11 19  1  0
 14 13  1  0
 14 15  1  1
 14 16  1  0
 16 17  1  0
 17 18  1  1
 17 19  1  0
 19 20  1  1
 21 20  1  6
 21 22  1  0
 21 29  1  0
 22 23  1  6
 22 24  1  0
 24 25  1  1
 24 26  1  0
 25 31  1  0
 26 27  1  0
 26 28  1  0
 26 30  1  1
 28 29  1  0
M  CHG  5   4   1  10   1  12   1  15   1  25   1
M  END
$$$$
