
     RDKit          3D

 31 33  0  0  0  0  0  0  0  0999 V2000
  113.9311  -12.4497   -7.9703 C   0  0  2  0  0  0  0  0  0  0  0  0
  112.6319  -12.6407   -8.3642 O   0  0  0  0  0  0  0  0  0  0  0  0
  114.3037  -10.9616   -7.9171 C   0  0  2  0  0  0  0  0  0  0  0  0
  114.5267  -10.4345   -9.2522 N   0  0  0  0  0  4  0  0  0  0  0  0
  115.6330  -10.8953   -7.1919 C   0  0  0  0  0  0  0  0  0  0  0  0
  116.3030  -12.2411   -7.1140 C   0  0  0  0  0  0  0  0  0  0  0  0
  116.1156  -13.0680   -8.3450 C   0  0  2  0  0  0  0  0  0  0  0  0
  114.8359  -13.0298   -8.8619 O   0  0  0  0  0  0  0  0  0  0  0  0
  116.3931  -14.5213   -7.9635 C   0  0  0  0  0  0  0  0  0  0  0  0
  115.1365  -15.1171   -7.5662 N   0  0  0  0  0  4  0  0  0  0  0  0
  109.6459  -14.2706   -9.2114 C   0  0  2  0  0  0  0  0  0  0  0  0
  108.3536  -14.6614   -9.7212 N   0  0  0  0  0  4  0  0  0  0  0  0
  110.4710  -13.8165  -10.3824 C   0  0  0  0  0  0  0  0  0  0  0  0
  111.9314  -13.9370  -10.2188 C   0  0  2  0  0  0  0  0  0  0  0  0
  112.4561  -15.0789  -10.9534 N   0  0  0  0  0  4  0  0  0  0  0  0
  112.4386  -13.9447   -8.8089 C   0  0  2  0  0  0  0  0  0  0  0  0
  111.5907  -14.7500   -7.8623 C   0  0  2  0  0  0  0  0  0  0  0  0
  112.3262  -15.7293   -7.1870 O   0  0  0  0  0  0  0  0  0  0  0  0
  110.3897  -15.3927   -8.5255 C   0  0  1  0  0  0  0  0  0  0  0  0
  109.6505  -16.0063   -7.5149 O   0  0  0  0  0  0  0  0  0  0  0  0
  110.4481  -16.8397   -6.7717 C   0  0  2  0  0  0  0  0  0  0  0  0
  109.8063  -17.4744   -5.5870 C   0  0  2  0  0  0  0  0  0  0  0  0
  108.4868  -17.8108   -5.7172 O   0  0  0  0  0  0  0  0  0  0  0  0
  110.0225  -16.6028   -4.3457 C   0  0  1  0  0  0  0  0  0  0  0  0
  109.1352  -17.0713   -3.3257 N   0  0  0  0  0  4  0  0  0  0  0  0
  111.4922  -16.7765   -3.9754 C   0  0  1  0  0  0  0  0  0  0  0  0
  111.7161  -17.8741   -3.1820 O   0  0  0  0  0  0  0  0  0  0  0  0
  112.2410  -16.8540   -5.3097 C   0  0  0  0  0  0  0  0  0  0  0  0
  111.5384  -16.0851   -6.2663 O   0  0  0  0  0  0  0  0  0  0  0  0
  111.9421  -15.5208   -3.2698 C   0  0  0  0  0  0  0  0  0  0  0  0
  108.9300  -18.5106   -3.5085 C   0  0  0  0  0  0  0  0  0  0  0  0
  1  2  1  6
  1  3  1  0
  1  8  1  0
 16  2  1  1
  3  4  1  6
  3  5  1  0
  5  6  1  0
  7  6  1  0
  8  7  1  0
  7  9  1  1
  9 10  1  0
 11 12  1  6
 13 11  1  0
 11 19  1  0
 14 13  1  0
 14 15  1  1
 14 16  1  0
 16 17  1  0
 17 18  1  6
 17 19  1  0
 19 20  1  1
 21 20  1  1
 21 22  1  0
 21 29  1  0
 22 23  1  6
 22 24  1  0
 24 25  1  1
 24 26  1  0
 25 31  1  0
 26 27  1  0
 26 28  1  0
 26 30  1  1
 28 29  1  0
M  CHG  5   4   1  10   1  12   1  15   1  25   1
M  END
$$$$
