
     RDKit          3D

 21 23  0  0  0  0  0  0  0  0999 V2000
   64.5127   32.2235   27.0080 C   0  0  0  0  0  0  0  0  0  0  0  0
   63.3235   32.7476   26.5423 C   0  0  0  0  0  0  0  0  0  0  0  0
   63.2672   33.6405   25.5005 C   0  0  0  0  0  0  0  0  0  0  0  0
   64.3814   34.9697   23.7989 C   0  0  0  0  0  0  0  0  0  0  0  0
   64.5634   36.6070   22.4045 C   0  0  0  0  0  0  0  0  0  0  0  0
   65.9720   36.8045   24.4033 C   0  0  0  0  0  0  0  0  0  0  0  0
   67.2791   36.9790   24.0080 C   0  0  0  0  0  0  0  0  0  0  0  0
   68.1949   37.6609   24.7805 C   0  0  0  0  0  0  0  0  0  0  0  0
   67.8121   38.1971   25.9977 C   0  0  0  0  0  0  0  0  0  0  0  0
   66.5043   38.0307   26.4087 C   0  0  0  0  0  0  0  0  0  0  0  0
   64.4640   34.0351   24.8862 C   0  0  0  0  0  0  0  0  0  0  0  0
   65.6297   33.5022   25.3653 C   0  0  0  0  0  0  0  0  0  0  0  0
   65.6734   32.5983   26.4214 C   0  0  0  0  0  0  0  0  0  0  0  0
   63.5661   34.7788   22.7205 N   0  0  0  0  0  0  0  0  0  0  0  0
   63.6760   35.7739   21.8720 N   0  0  0  0  0  0  0  0  0  0  0  0
   64.9939   36.1127   23.5841 N   0  0  0  0  0  0  0  0  0  0  0  0
   65.5953   37.3395   25.6149 C   0  0  0  0  0  0  0  0  0  0  0  0
   65.0675   38.0123   21.7515 S   0  0  0  0  0  0  0  0  0  0  0  0
   67.6262   36.4350   22.7958 F   0  0  0  0  0  0  0  0  0  0  0  0
   62.0508   34.1342   25.0739 O   0  0  0  0  0  0  0  0  0  0  0  0
   64.4357   31.3231   28.0752 O   0  0  0  0  0  0  0  0  0  0  0  0
  2  1  2  0
  1 13  1  0
  1 21  1  0
  3  2  1  0
 11  3  2  0
  3 20  1  0
  4 11  1  0
  4 14  2  0
 16  4  1  0
  5 15  1  0
 16  5  1  0
  5 18  2  0
  6  7  2  0
  6 16  1  0
  6 17  1  0
  7  8  1  0
  7 19  1  0
  8  9  2  0
  9 10  1  0
 10 17  2  0
 11 12  1  0
 12 13  2  0
 14 15  1  0
M  END
$$$$
