
     RDKit          3D

 21 23  0  0  0  0  0  0  0  0999 V2000
   64.3124   32.1209   27.0694 C   0  0  0  0  0  0  0  0  0  0  0  0
   63.1314   32.5874   26.5278 C   0  0  0  0  0  0  0  0  0  0  0  0
   63.0984   33.4577   25.4660 C   0  0  0  0  0  0  0  0  0  0  0  0
   64.2528   34.7989   23.8011 C   0  0  0  0  0  0  0  0  0  0  0  0
   64.4923   36.3856   22.3577 C   0  0  0  0  0  0  0  0  0  0  0  0
   65.9719   36.5452   24.3080 C   0  0  0  0  0  0  0  0  0  0  0  0
   65.7173   37.2138   25.4842 C   0  0  0  0  0  0  0  0  0  0  0  0
   66.7190   37.8052   26.2241 C   0  0  0  0  0  0  0  0  0  0  0  0
   68.0319   37.7384   25.7912 C   0  0  0  0  0  0  0  0  0  0  0  0
   68.3040   37.0713   24.6131 C   0  0  0  0  0  0  0  0  0  0  0  0
   64.3111   33.8890   24.9106 C   0  0  0  0  0  0  0  0  0  0  0  0
   65.4683   33.4129   25.4645 C   0  0  0  0  0  0  0  0  0  0  0  0
   65.4885   32.5316   26.5401 C   0  0  0  0  0  0  0  0  0  0  0  0
   63.3940   34.6321   22.7528 N   0  0  0  0  0  0  0  0  0  0  0  0
   63.5389   35.5964   21.8745 N   0  0  0  0  0  0  0  0  0  0  0  0
   64.9278   35.8954   23.5371 N   0  0  0  0  0  0  0  0  0  0  0  0
   67.2794   36.4811   23.8809 C   0  0  0  0  0  0  0  0  0  0  0  0
   65.0618   37.7394   21.6519 S   0  0  0  0  0  0  0  0  0  0  0  0
   64.4048   37.2616   25.8854 F   0  0  0  0  0  0  0  0  0  0  0  0
   61.8893   33.8935   24.9626 O   0  0  0  0  0  0  0  0  0  0  0  0
   64.2113   31.2383   28.1494 O   0  0  0  0  0  0  0  0  0  0  0  0
  2  1  2  0
  1 13  1  0
  1 21  1  0
  3  2  1  0
 11  3  2  0
  3 20  1  0
  4 11  1  0
  4 14  2  0
 16  4  1  0
  5 15  1  0
 16  5  1  0
  5 18  2  0
  6  7  2  0
  6 16  1  0
  6 17  1  0
  7  8  1  0
  7 19  1  0
  8  9  2  0
  9 10  1  0
 10 17  2  0
 11 12  1  0
 12 13  2  0
 14 15  1  0
M  END
$$$$
