
     RDKit          3D

 21 23  0  0  0  0  0  0  0  0999 V2000
   64.2748   32.3248   27.0022 C   0  0  0  0  0  0  0  0  0  0  0  0
   63.1019   32.8116   26.4606 C   0  0  0  0  0  0  0  0  0  0  0  0
   63.0843   33.6998   25.4134 C   0  0  0  0  0  0  0  0  0  0  0  0
   64.2626   35.0576   23.7789 C   0  0  0  0  0  0  0  0  0  0  0  0
   64.4832   36.6956   22.3910 C   0  0  0  0  0  0  0  0  0  0  0  0
   65.7607   36.9386   24.4712 C   0  0  0  0  0  0  0  0  0  0  0  0
   67.0920   37.1205   24.1714 C   0  0  0  0  0  0  0  0  0  0  0  0
   67.9397   37.8304   24.9947 C   0  0  0  0  0  0  0  0  0  0  0  0
   67.4604   38.3885   26.1671 C   0  0  0  0  0  0  0  0  0  0  0  0
   66.1272   38.2152   26.4824 C   0  0  0  0  0  0  0  0  0  0  0  0
   64.3048   34.1288   24.8734 C   0  0  0  0  0  0  0  0  0  0  0  0
   65.4537   33.6325   25.4268 C   0  0  0  0  0  0  0  0  0  0  0  0
   65.4582   32.7331   26.4876 C   0  0  0  0  0  0  0  0  0  0  0  0
   63.5205   34.8406   22.6536 N   0  0  0  0  0  0  0  0  0  0  0  0
   63.6540   35.8361   21.8089 N   0  0  0  0  0  0  0  0  0  0  0  0
   64.8545   36.2170   23.5968 N   0  0  0  0  0  0  0  0  0  0  0  0
   65.2880   37.4955   25.6385 C   0  0  0  0  0  0  0  0  0  0  0  0
   64.9864   38.1129   21.7637 S   0  0  0  0  0  0  0  0  0  0  0  0
   67.5352   36.5541   23.0014 F   0  0  0  0  0  0  0  0  0  0  0  0
   61.8828   34.1555   24.9094 O   0  0  0  0  0  0  0  0  0  0  0  0
   64.1580   31.4253   28.0665 O   0  0  0  0  0  0  0  0  0  0  0  0
  2  1  2  0
  1 13  1  0
  1 21  1  0
  3  2  1  0
 11  3  2  0
  3 20  1  0
  4 11  1  0
  4 14  2  0
 16  4  1  0
  5 15  1  0
 16  5  1  0
  5 18  2  0
  6  7  2  0
  6 16  1  0
  6 17  1  0
  7  8  1  0
  7 19  1  0
  8  9  2  0
  9 10  1  0
 10 17  2  0
 11 12  1  0
 12 13  2  0
 14 15  1  0
M  END
$$$$
