
     RDKit          3D

 21 23  0  0  0  0  0  0  0  0999 V2000
   64.4404   32.3657   26.9203 C   0  0  0  0  0  0  0  0  0  0  0  0
   63.2483   32.8471   26.4174 C   0  0  0  0  0  0  0  0  0  0  0  0
   63.1920   33.7251   25.3629 C   0  0  0  0  0  0  0  0  0  0  0  0
   64.3091   35.0670   23.6733 C   0  0  0  0  0  0  0  0  0  0  0  0
   64.4861   36.6864   22.2575 C   0  0  0  0  0  0  0  0  0  0  0  0
   65.8736   36.9277   24.2662 C   0  0  0  0  0  0  0  0  0  0  0  0
   67.1962   37.0613   23.9079 C   0  0  0  0  0  0  0  0  0  0  0  0
   68.0980   37.7643   24.6779 C   0  0  0  0  0  0  0  0  0  0  0  0
   67.6847   38.3649   25.8543 C   0  0  0  0  0  0  0  0  0  0  0  0
   66.3611   38.2403   26.2279 C   0  0  0  0  0  0  0  0  0  0  0  0
   64.3917   34.1489   24.7745 C   0  0  0  0  0  0  0  0  0  0  0  0
   65.5603   33.6581   25.2903 C   0  0  0  0  0  0  0  0  0  0  0  0
   65.6040   32.7691   26.3589 C   0  0  0  0  0  0  0  0  0  0  0  0
   63.5060   34.8518   22.5902 N   0  0  0  0  0  0  0  0  0  0  0  0
   63.6129   35.8360   21.7287 N   0  0  0  0  0  0  0  0  0  0  0  0
   64.9109   36.2136   23.4479 N   0  0  0  0  0  0  0  0  0  0  0  0
   65.4666   37.5268   25.4373 C   0  0  0  0  0  0  0  0  0  0  0  0
   64.9808   38.0878   21.5892 S   0  0  0  0  0  0  0  0  0  0  0  0
   67.5735   36.4537   22.7355 F   0  0  0  0  0  0  0  0  0  0  0  0
   61.9726   34.1756   24.8988 O   0  0  0  0  0  0  0  0  0  0  0  0
   64.3631   31.4766   27.9969 O   0  0  0  0  0  0  0  0  0  0  0  0
  2  1  2  0
  1 13  1  0
  1 21  1  0
  3  2  1  0
 11  3  2  0
  3 20  1  0
  4 11  1  0
  4 14  2  0
 16  4  1  0
  5 15  1  0
 16  5  1  0
  5 18  2  0
  6  7  2  0
  6 16  1  0
  6 17  1  0
  7  8  1  0
  7 19  1  0
  8  9  2  0
  9 10  1  0
 10 17  2  0
 11 12  1  0
 12 13  2  0
 14 15  1  0
M  END
$$$$
