
     RDKit          3D

 21 23  0  0  0  0  0  0  0  0999 V2000
   64.3823   32.0346   26.8897 C   0  0  0  0  0  0  0  0  0  0  0  0
   63.1796   32.4772   26.3763 C   0  0  0  0  0  0  0  0  0  0  0  0
   63.1042   33.3740   25.3390 C   0  0  0  0  0  0  0  0  0  0  0  0
   64.1921   34.7955   23.6961 C   0  0  0  0  0  0  0  0  0  0  0  0
   64.3647   36.4242   22.2905 C   0  0  0  0  0  0  0  0  0  0  0  0
   65.8819   36.5673   24.2130 C   0  0  0  0  0  0  0  0  0  0  0  0
   65.6413   37.1820   25.4212 C   0  0  0  0  0  0  0  0  0  0  0  0
   66.6453   37.7770   26.1550 C   0  0  0  0  0  0  0  0  0  0  0  0
   67.9463   37.7695   25.6828 C   0  0  0  0  0  0  0  0  0  0  0  0
   68.2043   37.1570   24.4723 C   0  0  0  0  0  0  0  0  0  0  0  0
   64.2948   33.8587   24.7798 C   0  0  0  0  0  0  0  0  0  0  0  0
   65.4741   33.4055   25.3054 C   0  0  0  0  0  0  0  0  0  0  0  0
   65.5372   32.4969   26.3564 C   0  0  0  0  0  0  0  0  0  0  0  0
   63.3151   34.6361   22.6619 N   0  0  0  0  0  0  0  0  0  0  0  0
   63.4192   35.6260   21.8066 N   0  0  0  0  0  0  0  0  0  0  0  0
   64.8364   35.9138   23.4472 N   0  0  0  0  0  0  0  0  0  0  0  0
   67.1776   36.5621   23.7469 C   0  0  0  0  0  0  0  0  0  0  0  0
   64.8883   37.8087   21.6089 S   0  0  0  0  0  0  0  0  0  0  0  0
   64.3403   37.1717   25.8609 F   0  0  0  0  0  0  0  0  0  0  0  0
   61.8750   33.7838   24.8634 O   0  0  0  0  0  0  0  0  0  0  0  0
   64.3244   31.1208   27.9466 O   0  0  0  0  0  0  0  0  0  0  0  0
  2  1  2  0
  1 13  1  0
  1 21  1  0
  3  2  1  0
 11  3  2  0
  3 20  1  0
  4 11  1  0
  4 14  2  0
 16  4  1  0
  5 15  1  0
 16  5  1  0
  5 18  2  0
  6  7  2  0
  6 16  1  0
  6 17  1  0
  7  8  1  0
  7 19  1  0
  8  9  2  0
  9 10  1  0
 10 17  2  0
 11 12  1  0
 12 13  2  0
 14 15  1  0
M  END
$$$$
