
     RDKit          3D

 21 23  0  0  0  0  0  0  0  0999 V2000
   64.4167   32.5128   27.1048 C   0  0  0  0  0  0  0  0  0  0  0  0
   63.2441   32.9788   26.5445 C   0  0  0  0  0  0  0  0  0  0  0  0
   63.2275   33.8604   25.4917 C   0  0  0  0  0  0  0  0  0  0  0  0
   64.4074   35.2258   23.8648 C   0  0  0  0  0  0  0  0  0  0  0  0
   64.6835   36.8161   22.4320 C   0  0  0  0  0  0  0  0  0  0  0  0
   66.1953   36.9045   24.3620 C   0  0  0  0  0  0  0  0  0  0  0  0
   65.9799   37.5835   25.5402 C   0  0  0  0  0  0  0  0  0  0  0  0
   67.0124   38.1317   26.2708 C   0  0  0  0  0  0  0  0  0  0  0  0
   68.3174   38.0090   25.8263 C   0  0  0  0  0  0  0  0  0  0  0  0
   68.5504   37.3309   24.6461 C   0  0  0  0  0  0  0  0  0  0  0  0
   64.4487   34.3043   24.9655 C   0  0  0  0  0  0  0  0  0  0  0  0
   65.5972   33.8285   25.5374 C   0  0  0  0  0  0  0  0  0  0  0  0
   65.6008   32.9356   26.6036 C   0  0  0  0  0  0  0  0  0  0  0  0
   63.5285   35.0996   22.8277 N   0  0  0  0  0  0  0  0  0  0  0  0
   63.6955   36.0661   21.9558 N   0  0  0  0  0  0  0  0  0  0  0  0
   65.1177   36.2998   23.6007 N   0  0  0  0  0  0  0  0  0  0  0  0
   67.4951   36.7848   23.9233 C   0  0  0  0  0  0  0  0  0  0  0  0
   65.2914   38.1550   21.7298 S   0  0  0  0  0  0  0  0  0  0  0  0
   64.6743   37.6871   25.9529 F   0  0  0  0  0  0  0  0  0  0  0  0
   62.0263   34.2950   24.9688 O   0  0  0  0  0  0  0  0  0  0  0  0
   64.2990   31.6180   28.1729 O   0  0  0  0  0  0  0  0  0  0  0  0
  2  1  2  0
  1 13  1  0
  1 21  1  0
  3  2  1  0
 11  3  2  0
  3 20  1  0
  4 11  1  0
  4 14  2  0
 16  4  1  0
  5 15  1  0
 16  5  1  0
  5 18  2  0
  6  7  2  0
  6 16  1  0
  6 17  1  0
  7  8  1  0
  7 19  1  0
  8  9  2  0
  9 10  1  0
 10 17  2  0
 11 12  1  0
 12 13  2  0
 14 15  1  0
M  END
$$$$
