
     RDKit          3D

 21 23  0  0  0  0  0  0  0  0999 V2000
   64.2844   32.4398   27.1701 C   0  0  0  0  0  0  0  0  0  0  0  0
   63.2860   32.4376   26.2168 C   0  0  0  0  0  0  0  0  0  0  0  0
   63.2909   33.2895   25.1397 C   0  0  0  0  0  0  0  0  0  0  0  0
   64.3357   35.0778   23.8693 C   0  0  0  0  0  0  0  0  0  0  0  0
   64.6951   36.5643   22.3464 C   0  0  0  0  0  0  0  0  0  0  0  0
   66.3785   36.4994   24.1297 C   0  0  0  0  0  0  0  0  0  0  0  0
   66.3795   37.4781   25.0979 C   0  0  0  0  0  0  0  0  0  0  0  0
   67.5382   37.8990   25.7151 C   0  0  0  0  0  0  0  0  0  0  0  0
   68.7530   37.3344   25.3673 C   0  0  0  0  0  0  0  0  0  0  0  0
   68.7691   36.3512   24.3977 C   0  0  0  0  0  0  0  0  0  0  0  0
   64.3511   34.1965   25.0031 C   0  0  0  0  0  0  0  0  0  0  0  0
   65.3287   34.1798   25.9605 C   0  0  0  0  0  0  0  0  0  0  0  0
   65.3122   33.3118   27.0470 C   0  0  0  0  0  0  0  0  0  0  0  0
   63.3545   35.0444   22.9204 N   0  0  0  0  0  0  0  0  0  0  0  0
   63.5721   35.9479   21.9939 N   0  0  0  0  0  0  0  0  0  0  0  0
   65.1607   36.0300   23.4947 N   0  0  0  0  0  0  0  0  0  0  0  0
   67.5892   35.9403   23.7867 C   0  0  0  0  0  0  0  0  0  0  0  0
   65.4151   37.7788   21.5328 S   0  0  0  0  0  0  0  0  0  0  0  0
   65.1582   38.0174   25.4195 F   0  0  0  0  0  0  0  0  0  0  0  0
   62.2671   33.2457   24.2150 O   0  0  0  0  0  0  0  0  0  0  0  0
   64.1637   31.5227   28.2190 O   0  0  0  0  0  0  0  0  0  0  0  0
  2  1  2  0
  1 13  1  0
  1 21  1  0
  3  2  1  0
 11  3  2  0
  3 20  1  0
  4 11  1  0
  4 14  2  0
 16  4  1  0
  5 15  1  0
 16  5  1  0
  5 18  2  0
  6  7  2  0
  6 16  1  0
  6 17  1  0
  7  8  1  0
  7 19  1  0
  8  9  2  0
  9 10  1  0
 10 17  2  0
 11 12  1  0
 12 13  2  0
 14 15  1  0
M  END
$$$$
