
     RDKit          3D

 21 23  0  0  0  0  0  0  0  0999 V2000
   64.4455   32.1607   27.1740 C   0  0  0  0  0  0  0  0  0  0  0  0
   63.2622   32.6551   26.6627 C   0  0  0  0  0  0  0  0  0  0  0  0
   63.2236   33.5457   25.6182 C   0  0  0  0  0  0  0  0  0  0  0  0
   64.3685   34.9009   23.9579 C   0  0  0  0  0  0  0  0  0  0  0  0
   64.5625   36.5415   22.5692 C   0  0  0  0  0  0  0  0  0  0  0  0
   65.8871   36.7760   24.6207 C   0  0  0  0  0  0  0  0  0  0  0  0
   67.1951   37.0117   24.2618 C   0  0  0  0  0  0  0  0  0  0  0  0
   68.0621   37.7171   25.0688 C   0  0  0  0  0  0  0  0  0  0  0  0
   67.6271   38.2151   26.2847 C   0  0  0  0  0  0  0  0  0  0  0  0
   66.3176   37.9873   26.6594 C   0  0  0  0  0  0  0  0  0  0  0  0
   64.4327   33.9693   25.0491 C   0  0  0  0  0  0  0  0  0  0  0  0
   65.5922   33.4655   25.5728 C   0  0  0  0  0  0  0  0  0  0  0  0
   65.6180   32.5637   26.6312 C   0  0  0  0  0  0  0  0  0  0  0  0
   63.6007   34.6885   22.8491 N   0  0  0  0  0  0  0  0  0  0  0  0
   63.7179   35.6857   22.0040 N   0  0  0  0  0  0  0  0  0  0  0  0
   64.9594   36.0590   23.7653 N   0  0  0  0  0  0  0  0  0  0  0  0
   65.4584   37.2732   25.8312 C   0  0  0  0  0  0  0  0  0  0  0  0
   65.0555   37.9589   21.9340 S   0  0  0  0  0  0  0  0  0  0  0  0
   67.5946   36.5043   23.0498 F   0  0  0  0  0  0  0  0  0  0  0  0
   62.0125   34.0090   25.1451 O   0  0  0  0  0  0  0  0  0  0  0  0
   64.3502   31.2594   28.2390 O   0  0  0  0  0  0  0  0  0  0  0  0
  2  1  2  0
  1 13  1  0
  1 21  1  0
  3  2  1  0
 11  3  2  0
  3 20  1  0
  4 11  1  0
  4 14  2  0
 16  4  1  0
  5 15  1  0
 16  5  1  0
  5 18  2  0
  6  7  2  0
  6 16  1  0
  6 17  1  0
  7  8  1  0
  7 19  1  0
  8  9  2  0
  9 10  1  0
 10 17  2  0
 11 12  1  0
 12 13  2  0
 14 15  1  0
M  END
$$$$
