
     RDKit          3D

 21 23  0  0  0  0  0  0  0  0999 V2000
   64.4700   32.1923   27.0610 C   0  0  0  0  0  0  0  0  0  0  0  0
   63.2910   32.7174   26.5710 C   0  0  0  0  0  0  0  0  0  0  0  0
   63.2572   33.6147   25.5320 C   0  0  0  0  0  0  0  0  0  0  0  0
   64.4078   34.9519   23.8613 C   0  0  0  0  0  0  0  0  0  0  0  0
   64.6244   36.5919   22.4750 C   0  0  0  0  0  0  0  0  0  0  0  0
   66.0100   36.7676   24.4918 C   0  0  0  0  0  0  0  0  0  0  0  0
   67.3328   36.8941   24.1317 C   0  0  0  0  0  0  0  0  0  0  0  0
   68.2467   37.5638   24.9171 C   0  0  0  0  0  0  0  0  0  0  0  0
   67.8457   38.1365   26.1116 C   0  0  0  0  0  0  0  0  0  0  0  0
   66.5221   38.0186   26.4872 C   0  0  0  0  0  0  0  0  0  0  0  0
   64.4669   34.0128   24.9462 C   0  0  0  0  0  0  0  0  0  0  0  0
   65.6222   33.4789   25.4490 C   0  0  0  0  0  0  0  0  0  0  0  0
   65.6432   32.5706   26.5020 C   0  0  0  0  0  0  0  0  0  0  0  0
   63.6040   34.7733   22.7722 N   0  0  0  0  0  0  0  0  0  0  0  0
   63.7349   35.7700   21.9286 N   0  0  0  0  0  0  0  0  0  0  0  0
   65.0349   36.0890   23.6581 N   0  0  0  0  0  0  0  0  0  0  0  0
   65.6154   37.3389   25.6809 C   0  0  0  0  0  0  0  0  0  0  0  0
   65.1514   37.9939   21.8332 S   0  0  0  0  0  0  0  0  0  0  0  0
   67.6976   36.3146   22.9413 F   0  0  0  0  0  0  0  0  0  0  0  0
   62.0501   34.1091   25.0805 O   0  0  0  0  0  0  0  0  0  0  0  0
   64.3700   31.2874   28.1225 O   0  0  0  0  0  0  0  0  0  0  0  0
  2  1  2  0
  1 13  1  0
  1 21  1  0
  3  2  1  0
 11  3  2  0
  3 20  1  0
  4 11  1  0
  4 14  2  0
 16  4  1  0
  5 15  1  0
 16  5  1  0
  5 18  2  0
  6  7  2  0
  6 16  1  0
  6 17  1  0
  7  8  1  0
  7 19  1  0
  8  9  2  0
  9 10  1  0
 10 17  2  0
 11 12  1  0
 12 13  2  0
 14 15  1  0
M  END
$$$$
