
     RDKit          3D

 21 23  0  0  0  0  0  0  0  0999 V2000
   64.5675   32.2399   27.3218 C   0  0  0  0  0  0  0  0  0  0  0  0
   63.3590   32.6613   26.8044 C   0  0  0  0  0  0  0  0  0  0  0  0
   63.2716   33.5198   25.7361 C   0  0  0  0  0  0  0  0  0  0  0  0
   64.3405   34.8831   24.0324 C   0  0  0  0  0  0  0  0  0  0  0  0
   64.4916   36.4635   22.5704 C   0  0  0  0  0  0  0  0  0  0  0  0
   66.0076   36.6934   24.4854 C   0  0  0  0  0  0  0  0  0  0  0  0
   65.7470   37.4052   25.6347 C   0  0  0  0  0  0  0  0  0  0  0  0
   66.7426   38.0384   26.3477 C   0  0  0  0  0  0  0  0  0  0  0  0
   68.0553   37.9712   25.9142 C   0  0  0  0  0  0  0  0  0  0  0  0
   68.3334   37.2611   24.7629 C   0  0  0  0  0  0  0  0  0  0  0  0
   64.4557   33.9862   25.1482 C   0  0  0  0  0  0  0  0  0  0  0  0
   65.6410   33.5546   25.6785 C   0  0  0  0  0  0  0  0  0  0  0  0
   65.7162   32.6847   26.7610 C   0  0  0  0  0  0  0  0  0  0  0  0
   63.4651   34.6762   23.0052 N   0  0  0  0  0  0  0  0  0  0  0  0
   63.5562   35.6367   22.1156 N   0  0  0  0  0  0  0  0  0  0  0  0
   64.9703   36.0001   23.7439 N   0  0  0  0  0  0  0  0  0  0  0  0
   67.3149   36.6291   24.0577 C   0  0  0  0  0  0  0  0  0  0  0  0
   64.9970   37.8298   21.8402 S   0  0  0  0  0  0  0  0  0  0  0  0
   64.4349   37.4521   26.0372 F   0  0  0  0  0  0  0  0  0  0  0  0
   62.0369   33.9099   25.2579 O   0  0  0  0  0  0  0  0  0  0  0  0
   64.5218   31.3647   28.4115 O   0  0  0  0  0  0  0  0  0  0  0  0
  2  1  2  0
  1 13  1  0
  1 21  1  0
  3  2  1  0
 11  3  2  0
  3 20  1  0
  4 11  1  0
  4 14  2  0
 16  4  1  0
  5 15  1  0
 16  5  1  0
  5 18  2  0
  6  7  2  0
  6 16  1  0
  6 17  1  0
  7  8  1  0
  7 19  1  0
  8  9  2  0
  9 10  1  0
 10 17  2  0
 11 12  1  0
 12 13  2  0
 14 15  1  0
M  END
$$$$
