
     RDKit          3D

 21 23  0  0  0  0  0  0  0  0999 V2000
   64.4042   32.1773   27.0321 C   0  0  0  0  0  0  0  0  0  0  0  0
   63.2156   32.6950   26.5576 C   0  0  0  0  0  0  0  0  0  0  0  0
   63.1620   33.5865   25.5145 C   0  0  0  0  0  0  0  0  0  0  0  0
   64.2812   34.9194   23.8190 C   0  0  0  0  0  0  0  0  0  0  0  0
   64.4670   36.5544   22.4226 C   0  0  0  0  0  0  0  0  0  0  0  0
   65.8718   36.7539   24.4238 C   0  0  0  0  0  0  0  0  0  0  0  0
   67.1764   36.9390   24.0248 C   0  0  0  0  0  0  0  0  0  0  0  0
   68.0910   37.6214   24.7983 C   0  0  0  0  0  0  0  0  0  0  0  0
   67.7094   38.1473   26.0204 C   0  0  0  0  0  0  0  0  0  0  0  0
   66.4043   37.9703   26.4352 C   0  0  0  0  0  0  0  0  0  0  0  0
   64.3609   33.9864   24.9079 C   0  0  0  0  0  0  0  0  0  0  0  0
   65.5260   33.4598   25.3956 C   0  0  0  0  0  0  0  0  0  0  0  0
   65.5670   32.5573   26.4530 C   0  0  0  0  0  0  0  0  0  0  0  0
   63.4678   34.7274   22.7393 N   0  0  0  0  0  0  0  0  0  0  0  0
   63.5801   35.7211   21.8895 N   0  0  0  0  0  0  0  0  0  0  0  0
   64.8948   36.0616   23.6037 N   0  0  0  0  0  0  0  0  0  0  0  0
   65.4965   37.2787   25.6403 C   0  0  0  0  0  0  0  0  0  0  0  0
   64.9734   37.9583   21.7684 S   0  0  0  0  0  0  0  0  0  0  0  0
   67.5222   36.4050   22.8077 F   0  0  0  0  0  0  0  0  0  0  0  0
   61.9461   34.0737   25.0791 O   0  0  0  0  0  0  0  0  0  0  0  0
   64.3244   31.2777   28.0997 O   0  0  0  0  0  0  0  0  0  0  0  0
  2  1  2  0
  1 13  1  0
  1 21  1  0
  3  2  1  0
 11  3  2  0
  3 20  1  0
  4 11  1  0
  4 14  2  0
 16  4  1  0
  5 15  1  0
 16  5  1  0
  5 18  2  0
  6  7  2  0
  6 16  1  0
  6 17  1  0
  7  8  1  0
  7 19  1  0
  8  9  2  0
  9 10  1  0
 10 17  2  0
 11 12  1  0
 12 13  2  0
 14 15  1  0
M  END
$$$$
