
     RDKit          3D

 21 23  0  0  0  0  0  0  0  0999 V2000
   64.3766   32.4003   27.1856 C   0  0  0  0  0  0  0  0  0  0  0  0
   63.2077   32.8883   26.6367 C   0  0  0  0  0  0  0  0  0  0  0  0
   63.1973   33.7687   25.5829 C   0  0  0  0  0  0  0  0  0  0  0  0
   64.3867   35.1090   23.9421 C   0  0  0  0  0  0  0  0  0  0  0  0
   64.6567   36.7100   22.5201 C   0  0  0  0  0  0  0  0  0  0  0  0
   66.0933   36.8508   24.5037 C   0  0  0  0  0  0  0  0  0  0  0  0
   65.8004   37.6099   25.6143 C   0  0  0  0  0  0  0  0  0  0  0  0
   66.7835   38.1944   26.3840 C   0  0  0  0  0  0  0  0  0  0  0  0
   68.1162   38.0275   26.0499 C   0  0  0  0  0  0  0  0  0  0  0  0
   68.4267   37.2688   24.9385 C   0  0  0  0  0  0  0  0  0  0  0  0
   64.4214   34.1882   25.0436 C   0  0  0  0  0  0  0  0  0  0  0  0
   65.5663   33.6909   25.6043 C   0  0  0  0  0  0  0  0  0  0  0  0
   65.5635   32.7995   26.6718 C   0  0  0  0  0  0  0  0  0  0  0  0
   63.5511   34.9523   22.8737 N   0  0  0  0  0  0  0  0  0  0  0  0
   63.7145   35.9253   22.0084 N   0  0  0  0  0  0  0  0  0  0  0  0
   65.0667   36.2083   23.7038 N   0  0  0  0  0  0  0  0  0  0  0  0
   67.4204   36.6873   24.1748 C   0  0  0  0  0  0  0  0  0  0  0  0
   65.2407   38.0710   21.8403 S   0  0  0  0  0  0  0  0  0  0  0  0
   64.4691   37.7558   25.9181 F   0  0  0  0  0  0  0  0  0  0  0  0
   61.9994   34.2259   25.0717 O   0  0  0  0  0  0  0  0  0  0  0  0
   64.2526   31.5093   28.2562 O   0  0  0  0  0  0  0  0  0  0  0  0
  2  1  2  0
  1 13  1  0
  1 21  1  0
  3  2  1  0
 11  3  2  0
  3 20  1  0
  4 11  1  0
  4 14  2  0
 16  4  1  0
  5 15  1  0
 16  5  1  0
  5 18  2  0
  6  7  2  0
  6 16  1  0
  6 17  1  0
  7  8  1  0
  7 19  1  0
  8  9  2  0
  9 10  1  0
 10 17  2  0
 11 12  1  0
 12 13  2  0
 14 15  1  0
M  END
$$$$
