
     RDKit          3D

 21 23  0  0  0  0  0  0  0  0999 V2000
   64.3764   32.4170   27.1242 C   0  0  0  0  0  0  0  0  0  0  0  0
   63.2074   32.8873   26.5602 C   0  0  0  0  0  0  0  0  0  0  0  0
   63.1974   33.7606   25.5004 C   0  0  0  0  0  0  0  0  0  0  0  0
   64.3875   35.1040   23.8627 C   0  0  0  0  0  0  0  0  0  0  0  0
   64.6664   36.6883   22.4237 C   0  0  0  0  0  0  0  0  0  0  0  0
   66.1389   36.8143   24.3818 C   0  0  0  0  0  0  0  0  0  0  0  0
   65.8944   37.4695   25.5677 C   0  0  0  0  0  0  0  0  0  0  0  0
   66.9042   38.0392   26.3134 C   0  0  0  0  0  0  0  0  0  0  0  0
   68.2154   37.9633   25.8768 C   0  0  0  0  0  0  0  0  0  0  0  0
   68.4775   37.3094   24.6891 C   0  0  0  0  0  0  0  0  0  0  0  0
   64.4219   34.1910   24.9707 C   0  0  0  0  0  0  0  0  0  0  0  0
   65.5668   33.7111   25.5463 C   0  0  0  0  0  0  0  0  0  0  0  0
   65.5637   32.8268   26.6197 C   0  0  0  0  0  0  0  0  0  0  0  0
   63.5310   34.9565   22.8097 N   0  0  0  0  0  0  0  0  0  0  0  0
   63.6997   35.9194   21.9341 N   0  0  0  0  0  0  0  0  0  0  0  0
   65.0859   36.1872   23.6043 N   0  0  0  0  0  0  0  0  0  0  0  0
   67.4447   36.7411   23.9511 C   0  0  0  0  0  0  0  0  0  0  0  0
   65.2667   38.0316   21.7235 S   0  0  0  0  0  0  0  0  0  0  0  0
   64.5833   37.5268   25.9723 F   0  0  0  0  0  0  0  0  0  0  0  0
   61.9995   34.2001   24.9741 O   0  0  0  0  0  0  0  0  0  0  0  0
   64.2520   31.5317   28.1995 O   0  0  0  0  0  0  0  0  0  0  0  0
  2  1  2  0
  1 13  1  0
  1 21  1  0
  3  2  1  0
 11  3  2  0
  3 20  1  0
  4 11  1  0
  4 14  2  0
 16  4  1  0
  5 15  1  0
 16  5  1  0
  5 18  2  0
  6  7  2  0
  6 16  1  0
  6 17  1  0
  7  8  1  0
  7 19  1  0
  8  9  2  0
  9 10  1  0
 10 17  2  0
 11 12  1  0
 12 13  2  0
 14 15  1  0
M  END
$$$$
