
     RDKit          3D

 21 23  0  0  0  0  0  0  0  0999 V2000
   64.1859   32.2205   26.7808 C   0  0  0  0  0  0  0  0  0  0  0  0
   63.0046   32.7016   26.2527 C   0  0  0  0  0  0  0  0  0  0  0  0
   62.9700   33.5679   25.1877 C   0  0  0  0  0  0  0  0  0  0  0  0
   64.1215   34.8858   23.5021 C   0  0  0  0  0  0  0  0  0  0  0  0
   64.3227   36.4928   22.0755 C   0  0  0  0  0  0  0  0  0  0  0  0
   65.6473   36.7698   24.1218 C   0  0  0  0  0  0  0  0  0  0  0  0
   66.9678   36.9541   23.7786 C   0  0  0  0  0  0  0  0  0  0  0  0
   67.8379   37.6748   24.5685 C   0  0  0  0  0  0  0  0  0  0  0  0
   67.3933   38.2417   25.7504 C   0  0  0  0  0  0  0  0  0  0  0  0
   66.0714   38.0660   26.1089 C   0  0  0  0  0  0  0  0  0  0  0  0
   64.1814   33.9796   24.6147 C   0  0  0  0  0  0  0  0  0  0  0  0
   65.3389   33.4894   25.1554 C   0  0  0  0  0  0  0  0  0  0  0  0
   65.3606   32.6122   26.2345 C   0  0  0  0  0  0  0  0  0  0  0  0
   63.3533   34.6507   22.3981 N   0  0  0  0  0  0  0  0  0  0  0  0
   63.4750   35.6274   21.5300 N   0  0  0  0  0  0  0  0  0  0  0  0
   64.7171   36.0367   23.2828 N   0  0  0  0  0  0  0  0  0  0  0  0
   65.2092   37.3354   25.2983 C   0  0  0  0  0  0  0  0  0  0  0  0
   64.8217   37.8929   21.4077 S   0  0  0  0  0  0  0  0  0  0  0  0
   67.3764   36.3789   22.6004 F   0  0  0  0  0  0  0  0  0  0  0  0
   61.7607   34.0188   24.6983 O   0  0  0  0  0  0  0  0  0  0  0  0
   64.0864   31.3439   27.8658 O   0  0  0  0  0  0  0  0  0  0  0  0
  2  1  2  0
  1 13  1  0
  1 21  1  0
  3  2  1  0
 11  3  2  0
  3 20  1  0
  4 11  1  0
  4 14  2  0
 16  4  1  0
  5 15  1  0
 16  5  1  0
  5 18  2  0
  6  7  2  0
  6 16  1  0
  6 17  1  0
  7  8  1  0
  7 19  1  0
  8  9  2  0
  9 10  1  0
 10 17  2  0
 11 12  1  0
 12 13  2  0
 14 15  1  0
M  END
$$$$
