
     RDKit          3D

 21 23  0  0  0  0  0  0  0  0999 V2000
   64.3328   32.3368   27.1468 C   0  0  0  0  0  0  0  0  0  0  0  0
   63.1306   32.8059   26.6566 C   0  0  0  0  0  0  0  0  0  0  0  0
   63.0547   33.6949   25.6126 C   0  0  0  0  0  0  0  0  0  0  0  0
   64.1412   35.0725   23.9317 C   0  0  0  0  0  0  0  0  0  0  0  0
   64.2887   36.7081   22.5314 C   0  0  0  0  0  0  0  0  0  0  0  0
   65.7000   36.9380   24.5248 C   0  0  0  0  0  0  0  0  0  0  0  0
   67.0023   37.1352   24.1245 C   0  0  0  0  0  0  0  0  0  0  0  0
   67.9081   37.8363   24.8917 C   0  0  0  0  0  0  0  0  0  0  0  0
   67.5195   38.3693   26.1085 C   0  0  0  0  0  0  0  0  0  0  0  0
   66.2164   38.1802   26.5245 C   0  0  0  0  0  0  0  0  0  0  0  0
   64.2443   34.1432   25.0218 C   0  0  0  0  0  0  0  0  0  0  0  0
   65.4232   33.6641   25.5250 C   0  0  0  0  0  0  0  0  0  0  0  0
   65.4868   32.7638   26.5831 C   0  0  0  0  0  0  0  0  0  0  0  0
   63.3260   34.8631   22.8567 N   0  0  0  0  0  0  0  0  0  0  0  0
   63.4149   35.8571   22.0045 N   0  0  0  0  0  0  0  0  0  0  0  0
   64.7320   36.2257   23.7111 N   0  0  0  0  0  0  0  0  0  0  0  0
   65.3176   37.4698   25.7360 C   0  0  0  0  0  0  0  0  0  0  0  0
   64.7650   38.1201   21.8720 S   0  0  0  0  0  0  0  0  0  0  0  0
   67.3553   36.5938   22.9128 F   0  0  0  0  0  0  0  0  0  0  0  0
   61.8259   34.1324   25.1610 O   0  0  0  0  0  0  0  0  0  0  0  0
   64.2754   31.4344   28.2136 O   0  0  0  0  0  0  0  0  0  0  0  0
  2  1  2  0
  1 13  1  0
  1 21  1  0
  3  2  1  0
 11  3  2  0
  3 20  1  0
  4 11  1  0
  4 14  2  0
 16  4  1  0
  5 15  1  0
 16  5  1  0
  5 18  2  0
  6  7  2  0
  6 16  1  0
  6 17  1  0
  7  8  1  0
  7 19  1  0
  8  9  2  0
  9 10  1  0
 10 17  2  0
 11 12  1  0
 12 13  2  0
 14 15  1  0
M  END
$$$$
