
     RDKit          3D

 21 23  0  0  0  0  0  0  0  0999 V2000
   64.3680   32.3578   27.0380 C   0  0  0  0  0  0  0  0  0  0  0  0
   63.1769   32.8229   26.5176 C   0  0  0  0  0  0  0  0  0  0  0  0
   63.1240   33.6954   25.4583 C   0  0  0  0  0  0  0  0  0  0  0  0
   64.2471   35.0425   23.7768 C   0  0  0  0  0  0  0  0  0  0  0  0
   64.4545   36.6358   22.3358 C   0  0  0  0  0  0  0  0  0  0  0  0
   65.9490   36.8083   24.2736 C   0  0  0  0  0  0  0  0  0  0  0  0
   65.6889   37.5150   25.4261 C   0  0  0  0  0  0  0  0  0  0  0  0
   66.6889   38.1167   26.1599 C   0  0  0  0  0  0  0  0  0  0  0  0
   68.0059   38.0215   25.7450 C   0  0  0  0  0  0  0  0  0  0  0  0
   68.2836   37.3160   24.5909 C   0  0  0  0  0  0  0  0  0  0  0  0
   64.3262   34.1304   24.8833 C   0  0  0  0  0  0  0  0  0  0  0  0
   65.4937   33.6556   25.4163 C   0  0  0  0  0  0  0  0  0  0  0  0
   65.5340   32.7720   26.4896 C   0  0  0  0  0  0  0  0  0  0  0  0
   63.3813   34.8679   22.7356 N   0  0  0  0  0  0  0  0  0  0  0  0
   63.5067   35.8363   21.8587 N   0  0  0  0  0  0  0  0  0  0  0  0
   64.9063   36.1479   23.5100 N   0  0  0  0  0  0  0  0  0  0  0  0
   67.2606   36.7161   23.8644 C   0  0  0  0  0  0  0  0  0  0  0  0
   65.0013   37.9984   21.6288 S   0  0  0  0  0  0  0  0  0  0  0  0
   64.3724   37.5902   25.8099 F   0  0  0  0  0  0  0  0  0  0  0  0
   61.9056   34.1296   24.9766 O   0  0  0  0  0  0  0  0  0  0  0  0
   64.2872   31.4727   28.1177 O   0  0  0  0  0  0  0  0  0  0  0  0
  2  1  2  0
  1 13  1  0
  1 21  1  0
  3  2  1  0
 11  3  2  0
  3 20  1  0
  4 11  1  0
  4 14  2  0
 16  4  1  0
  5 15  1  0
 16  5  1  0
  5 18  2  0
  6  7  2  0
  6 16  1  0
  6 17  1  0
  7  8  1  0
  7 19  1  0
  8  9  2  0
  9 10  1  0
 10 17  2  0
 11 12  1  0
 12 13  2  0
 14 15  1  0
M  END
$$$$
