
     RDKit          3D

 21 23  0  0  0  0  0  0  0  0999 V2000
   64.1100   32.3881   27.1051 C   0  0  0  0  0  0  0  0  0  0  0  0
   62.9210   32.8775   26.6024 C   0  0  0  0  0  0  0  0  0  0  0  0
   62.8720   33.7860   25.5737 C   0  0  0  0  0  0  0  0  0  0  0  0
   64.0009   35.1836   23.9380 C   0  0  0  0  0  0  0  0  0  0  0  0
   64.2241   36.8179   22.5461 C   0  0  0  0  0  0  0  0  0  0  0  0
   65.7569   36.8882   24.4601 C   0  0  0  0  0  0  0  0  0  0  0  0
   65.5487   37.4863   25.6826 C   0  0  0  0  0  0  0  0  0  0  0  0
   66.5782   38.0378   26.4149 C   0  0  0  0  0  0  0  0  0  0  0  0
   67.8728   38.0015   25.9267 C   0  0  0  0  0  0  0  0  0  0  0  0
   68.0985   37.4050   24.7019 C   0  0  0  0  0  0  0  0  0  0  0  0
   64.0760   34.2337   25.0125 C   0  0  0  0  0  0  0  0  0  0  0  0
   65.2414   33.7344   25.5275 C   0  0  0  0  0  0  0  0  0  0  0  0
   65.2777   32.8144   26.5699 C   0  0  0  0  0  0  0  0  0  0  0  0
   63.1125   35.0657   22.9080 N   0  0  0  0  0  0  0  0  0  0  0  0
   63.2473   36.0590   22.0610 N   0  0  0  0  0  0  0  0  0  0  0  0
   64.6839   36.2801   23.6951 N   0  0  0  0  0  0  0  0  0  0  0  0
   67.0464   36.8543   23.9782 C   0  0  0  0  0  0  0  0  0  0  0  0
   64.7934   38.1887   21.8737 S   0  0  0  0  0  0  0  0  0  0  0  0
   64.2532   37.5055   26.1379 F   0  0  0  0  0  0  0  0  0  0  0  0
   61.6555   34.2433   25.1086 O   0  0  0  0  0  0  0  0  0  0  0  0
   64.0252   31.4671   28.1540 O   0  0  0  0  0  0  0  0  0  0  0  0
  2  1  2  0
  1 13  1  0
  1 21  1  0
  3  2  1  0
 11  3  2  0
  3 20  1  0
  4 11  1  0
  4 14  2  0
 16  4  1  0
  5 15  1  0
 16  5  1  0
  5 18  2  0
  6  7  2  0
  6 16  1  0
  6 17  1  0
  7  8  1  0
  7 19  1  0
  8  9  2  0
  9 10  1  0
 10 17  2  0
 11 12  1  0
 12 13  2  0
 14 15  1  0
M  END
$$$$
