
     RDKit          3D

 21 23  0  0  0  0  0  0  0  0999 V2000
   64.2842   32.1477   26.8171 C   0  0  0  0  0  0  0  0  0  0  0  0
   63.1000   32.6515   26.3175 C   0  0  0  0  0  0  0  0  0  0  0  0
   63.0592   33.5608   25.2892 C   0  0  0  0  0  0  0  0  0  0  0  0
   64.2008   34.9451   23.6509 C   0  0  0  0  0  0  0  0  0  0  0  0
   64.4002   36.6055   22.2865 C   0  0  0  0  0  0  0  0  0  0  0  0
   65.7642   36.7815   24.3180 C   0  0  0  0  0  0  0  0  0  0  0  0
   67.0900   36.9269   23.9764 C   0  0  0  0  0  0  0  0  0  0  0  0
   67.9847   37.6032   24.7780 C   0  0  0  0  0  0  0  0  0  0  0  0
   67.5606   38.1636   25.9704 C   0  0  0  0  0  0  0  0  0  0  0  0
   66.2337   38.0266   26.3274 C   0  0  0  0  0  0  0  0  0  0  0  0
   64.2672   33.9941   24.7250 C   0  0  0  0  0  0  0  0  0  0  0  0
   65.4277   33.4806   25.2369 C   0  0  0  0  0  0  0  0  0  0  0  0
   65.4556   32.5599   26.2789 C   0  0  0  0  0  0  0  0  0  0  0  0
   63.4102   34.7654   22.5524 N   0  0  0  0  0  0  0  0  0  0  0  0
   63.5307   35.7745   21.7221 N   0  0  0  0  0  0  0  0  0  0  0  0
   64.8091   36.0957   23.4672 N   0  0  0  0  0  0  0  0  0  0  0  0
   65.3465   37.3405   25.5050 C   0  0  0  0  0  0  0  0  0  0  0  0
   64.9075   38.0245   21.6665 S   0  0  0  0  0  0  0  0  0  0  0  0
   67.4780   36.3593   22.7876 F   0  0  0  0  0  0  0  0  0  0  0  0
   61.8472   34.0329   24.8273 O   0  0  0  0  0  0  0  0  0  0  0  0
   64.1910   31.2274   27.8660 O   0  0  0  0  0  0  0  0  0  0  0  0
  2  1  2  0
  1 13  1  0
  1 21  1  0
  3  2  1  0
 11  3  2  0
  3 20  1  0
  4 11  1  0
  4 14  2  0
 16  4  1  0
  5 15  1  0
 16  5  1  0
  5 18  2  0
  6  7  2  0
  6 16  1  0
  6 17  1  0
  7  8  1  0
  7 19  1  0
  8  9  2  0
  9 10  1  0
 10 17  2  0
 11 12  1  0
 12 13  2  0
 14 15  1  0
M  END
$$$$
