
     RDKit          3D

 21 23  0  0  0  0  0  0  0  0999 V2000
   64.2143   32.2292   26.9843 C   0  0  0  0  0  0  0  0  0  0  0  0
   63.0409   32.7196   26.4472 C   0  0  0  0  0  0  0  0  0  0  0  0
   63.0218   33.6005   25.3939 C   0  0  0  0  0  0  0  0  0  0  0  0
   64.1974   34.9392   23.7419 C   0  0  0  0  0  0  0  0  0  0  0  0
   64.4637   36.5344   22.3127 C   0  0  0  0  0  0  0  0  0  0  0  0
   65.9525   36.6462   24.2594 C   0  0  0  0  0  0  0  0  0  0  0  0
   65.7169   37.2971   25.4494 C   0  0  0  0  0  0  0  0  0  0  0  0
   66.7327   37.8615   26.1911 C   0  0  0  0  0  0  0  0  0  0  0  0
   68.0409   37.7845   25.7459 C   0  0  0  0  0  0  0  0  0  0  0  0
   68.2941   37.1348   24.5540 C   0  0  0  0  0  0  0  0  0  0  0  0
   64.2412   34.0178   24.8426 C   0  0  0  0  0  0  0  0  0  0  0  0
   65.3907   33.5182   25.3918 C   0  0  0  0  0  0  0  0  0  0  0  0
   65.3968   32.6263   26.4588 C   0  0  0  0  0  0  0  0  0  0  0  0
   63.3322   34.7994   22.6950 N   0  0  0  0  0  0  0  0  0  0  0  0
   63.4933   35.7689   21.8254 N   0  0  0  0  0  0  0  0  0  0  0  0
   64.8932   36.0246   23.4860 N   0  0  0  0  0  0  0  0  0  0  0  0
   67.2554   36.5719   23.8202 C   0  0  0  0  0  0  0  0  0  0  0  0
   65.0578   37.8833   21.6177 S   0  0  0  0  0  0  0  0  0  0  0  0
   64.4085   37.3557   25.8625 F   0  0  0  0  0  0  0  0  0  0  0  0
   61.8197   34.0602   24.8948 O   0  0  0  0  0  0  0  0  0  0  0  0
   64.0992   31.3380   28.0557 O   0  0  0  0  0  0  0  0  0  0  0  0
  2  1  2  0
  1 13  1  0
  1 21  1  0
  3  2  1  0
 11  3  2  0
  3 20  1  0
  4 11  1  0
  4 14  2  0
 16  4  1  0
  5 15  1  0
 16  5  1  0
  5 18  2  0
  6  7  2  0
  6 16  1  0
  6 17  1  0
  7  8  1  0
  7 19  1  0
  8  9  2  0
  9 10  1  0
 10 17  2  0
 11 12  1  0
 12 13  2  0
 14 15  1  0
M  END
$$$$
