
     RDKit          3D

 21 23  0  0  0  0  0  0  0  0999 V2000
   64.1513   32.4102   26.9141 C   0  0  0  0  0  0  0  0  0  0  0  0
   62.9668   32.8826   26.3852 C   0  0  0  0  0  0  0  0  0  0  0  0
   62.9266   33.7524   25.3233 C   0  0  0  0  0  0  0  0  0  0  0  0
   64.0695   35.0865   23.6448 C   0  0  0  0  0  0  0  0  0  0  0  0
   64.3033   36.6693   22.1963 C   0  0  0  0  0  0  0  0  0  0  0  0
   65.8142   36.8152   24.1235 C   0  0  0  0  0  0  0  0  0  0  0  0
   65.5816   37.5060   25.2915 C   0  0  0  0  0  0  0  0  0  0  0  0
   66.6002   38.0876   26.0158 C   0  0  0  0  0  0  0  0  0  0  0  0
   67.9084   37.9877   25.5750 C   0  0  0  0  0  0  0  0  0  0  0  0
   68.1586   37.2980   24.4051 C   0  0  0  0  0  0  0  0  0  0  0  0
   64.1353   34.1770   24.7542 C   0  0  0  0  0  0  0  0  0  0  0  0
   65.2961   33.6952   25.2956 C   0  0  0  0  0  0  0  0  0  0  0  0
   65.3235   32.8144   26.3715 C   0  0  0  0  0  0  0  0  0  0  0  0
   63.1931   34.9277   22.6099 N   0  0  0  0  0  0  0  0  0  0  0  0
   63.3344   35.8897   21.7285 N   0  0  0  0  0  0  0  0  0  0  0  0
   64.7517   36.1757   23.3694 N   0  0  0  0  0  0  0  0  0  0  0  0
   67.1171   36.7183   23.6886 C   0  0  0  0  0  0  0  0  0  0  0  0
   64.8760   38.0165   21.4804 S   0  0  0  0  0  0  0  0  0  0  0  0
   64.2732   37.5864   25.7008 F   0  0  0  0  0  0  0  0  0  0  0  0
   61.7142   34.1941   24.8330 O   0  0  0  0  0  0  0  0  0  0  0  0
   64.0576   31.5289   27.9957 O   0  0  0  0  0  0  0  0  0  0  0  0
  2  1  2  0
  1 13  1  0
  1 21  1  0
  3  2  1  0
 11  3  2  0
  3 20  1  0
  4 11  1  0
  4 14  2  0
 16  4  1  0
  5 15  1  0
 16  5  1  0
  5 18  2  0
  6  7  2  0
  6 16  1  0
  6 17  1  0
  7  8  1  0
  7 19  1  0
  8  9  2  0
  9 10  1  0
 10 17  2  0
 11 12  1  0
 12 13  2  0
 14 15  1  0
M  END
$$$$
