
     RDKit          3D

 24 27  0  0  0  0  0  0  0  0999 V2000
   19.8886   30.5933   13.9723 C   0  0  0  0  0  0  0  0  0  0  0  0
   20.3750   31.6762   13.2204 C   0  0  0  0  0  0  0  0  0  0  0  0
   21.6451   32.1362   13.4376 C   0  0  0  0  0  0  0  0  0  0  0  0
   19.7769   32.4719   12.1410 C   0  0  1  0  0  0  0  0  0  0  0  0
   17.2682   32.2159   11.9913 C   0  0  0  0  0  0  0  0  0  0  0  0
   14.8958   32.4015   12.1434 C   0  0  0  0  0  0  0  0  0  0  0  0
   18.7765   35.0312   13.7756 C   0  0  0  0  0  0  0  0  0  0  0  0
   20.2470   35.4698   15.6102 C   0  0  0  0  0  0  0  0  0  0  0  0
   22.4852   31.5462   14.4031 C   0  0  0  0  0  0  0  0  0  0  0  0
   18.4015   32.9180   12.4326 C   0  0  0  0  0  0  0  0  0  0  0  0
   17.9629   33.9859   13.1332 C   0  0  0  0  0  0  0  0  0  0  0  0
   16.1565   32.9053   12.4563 C   0  0  0  0  0  0  0  0  0  0  0  0
   17.1492   31.0650   11.2408 C   0  0  0  0  0  0  0  0  0  0  0  0
   14.7612   31.2541   11.3953 C   0  0  0  0  0  0  0  0  0  0  0  0
   15.8939   30.5946   10.9497 C   0  0  0  0  0  0  0  0  0  0  0  0
   21.9727   30.4893   15.1173 C   0  0  0  0  0  0  0  0  0  0  0  0
   17.9093   35.0997   15.9322 C   0  0  0  0  0  0  0  0  0  0  0  0
   20.6945   30.0223   14.9033 C   0  0  0  0  0  0  0  0  0  0  0  0
   21.8893   33.2714   12.5609 C   0  0  0  0  0  0  0  0  0  0  0  0
   16.5987   33.9604   13.1365 N   0  0  0  0  0  0  0  0  0  0  0  0
   19.0865   34.7310   15.1529 N   0  0  1  0  0  4  0  0  0  0  0  0
   20.7100   33.4753   11.8100 N   0  0  0  0  0  0  0  0  0  0  0  0
   22.9808   33.9102   12.5306 O   0  0  0  0  0  0  0  0  0  0  0  0
   20.2657   28.9347   15.6885 O   0  0  0  0  0  0  0  0  0  0  0  0
  2  1  2  0
  1 18  1  0
  2  3  1  0
  4  2  1  0
  3  9  2  0
  3 19  1  0
  4 10  1  1
  4 22  1  0
 10  5  1  0
  5 12  1  0
  5 13  2  0
 12  6  2  0
  6 14  1  0
 11  7  1  0
  7 21  1  0
 21  8  1  1
  9 16  1  0
 10 11  2  0
 11 20  1  0
 12 20  1  0
 13 15  1  0
 14 15  2  0
 16 18  2  0
 21 17  1  0
 18 24  1  0
 19 22  1  0
 19 23  2  0
M  CHG  1  21   1
M  END
$$$$
