
     RDKit          3D

 24 27  0  0  0  0  0  0  0  0999 V2000
   20.4155   34.3927   12.6364 C   0  0  0  0  0  0  0  0  0  0  0  0
   19.2350   34.6392   13.3576 C   0  0  0  0  0  0  0  0  0  0  0  0
   19.2717   35.4441   14.4633 C   0  0  0  0  0  0  0  0  0  0  0  0
   17.8471   34.2073   13.1499 C   0  0  1  0  0  0  0  0  0  0  0  0
   16.6277   32.2283   12.1609 C   0  0  0  0  0  0  0  0  0  0  0  0
   15.8845   30.0929   11.4034 C   0  0  0  0  0  0  0  0  0  0  0  0
   19.8001   31.7997   13.9320 C   0  0  0  0  0  0  0  0  0  0  0  0
   22.0924   32.4804   13.8824 C   0  0  0  0  0  0  0  0  0  0  0  0
   20.4725   36.0381   14.9003 C   0  0  0  0  0  0  0  0  0  0  0  0
   17.7163   32.7656   12.8668 C   0  0  0  0  0  0  0  0  0  0  0  0
   18.5384   31.7397   13.1761 C   0  0  0  0  0  0  0  0  0  0  0  0
   16.8401   30.8595   12.0669 C   0  0  0  0  0  0  0  0  0  0  0  0
   15.5108   32.8300   11.6202 C   0  0  0  0  0  0  0  0  0  0  0  0
   14.7647   30.6793   10.8588 C   0  0  0  0  0  0  0  0  0  0  0  0
   14.5884   32.0476   10.9732 C   0  0  0  0  0  0  0  0  0  0  0  0
   21.6052   35.7729   14.1677 C   0  0  0  0  0  0  0  0  0  0  0  0
   21.2260   30.8655   12.3504 C   0  0  0  0  0  0  0  0  0  0  0  0
   21.5743   34.9627   13.0540 C   0  0  0  0  0  0  0  0  0  0  0  0
   17.9373   35.5110   15.0394 C   0  0  0  0  0  0  0  0  0  0  0  0
   17.9897   30.5923   12.6821 N   0  0  0  0  0  0  0  0  0  0  0  0
   20.9403   32.0873   13.0952 N   0  0  1  0  0  4  0  0  0  0  0  0
   17.0982   34.7090   14.2337 N   0  0  0  0  0  0  0  0  0  0  0  0
   17.6539   36.1834   16.0727 O   0  0  0  0  0  0  0  0  0  0  0  0
   22.7902   34.7546   12.3745 O   0  0  0  0  0  0  0  0  0  0  0  0
  2  1  2  0
  1 18  1  0
  2  3  1  0
  4  2  1  0
  3  9  2  0
  3 19  1  0
  4 10  1  1
  4 22  1  0
 10  5  1  0
  5 12  1  0
  5 13  2  0
 12  6  2  0
  6 14  1  0
 11  7  1  0
  7 21  1  0
 21  8  1  1
  9 16  1  0
 10 11  2  0
 11 20  1  0
 12 20  1  0
 13 15  1  0
 14 15  2  0
 16 18  2  0
 21 17  1  0
 18 24  1  0
 19 22  1  0
 19 23  2  0
M  CHG  1  21   1
M  END
$$$$
