
     RDKit          3D

 24 27  0  0  0  0  0  0  0  0999 V2000
   16.7224   32.7443   11.6548 C   0  0  0  0  0  0  0  0  0  0  0  0
   17.7966   32.3975   12.4916 C   0  0  0  0  0  0  0  0  0  0  0  0
   17.6707   32.5320   13.8473 C   0  0  0  0  0  0  0  0  0  0  0  0
   19.1286   31.8492   12.2065 C   0  0  1  0  0  0  0  0  0  0  0  0
   19.9835   31.9867    9.8334 C   0  0  0  0  0  0  0  0  0  0  0  0
   20.9496   32.5883    7.7379 C   0  0  0  0  0  0  0  0  0  0  0  0
   20.5229   34.7264   12.1973 C   0  0  0  0  0  0  0  0  0  0  0  0
   21.8412   36.5763   12.9459 C   0  0  0  0  0  0  0  0  0  0  0  0
   16.4812   33.0122   14.4307 C   0  0  0  0  0  0  0  0  0  0  0  0
   19.8292   32.5468   11.1119 C   0  0  0  0  0  0  0  0  0  0  0  0
   20.4091   33.7662   11.0872 C   0  0  0  0  0  0  0  0  0  0  0  0
   20.6691   32.9160    9.0627 C   0  0  0  0  0  0  0  0  0  0  0  0
   19.5834   30.7703    9.3213 C   0  0  0  0  0  0  0  0  0  0  0  0
   20.5568   31.3782    7.2130 C   0  0  0  0  0  0  0  0  0  0  0  0
   19.8747   30.4776    8.0133 C   0  0  0  0  0  0  0  0  0  0  0  0
   15.4536   33.3400   13.5784 C   0  0  0  0  0  0  0  0  0  0  0  0
   22.5875   34.3201   13.1871 C   0  0  0  0  0  0  0  0  0  0  0  0
   15.5749   33.2073   12.2126 C   0  0  0  0  0  0  0  0  0  0  0  0
   18.9226   32.1392   14.4761 C   0  0  0  0  0  0  0  0  0  0  0  0
   20.9123   33.9718    9.8358 N   0  0  0  0  0  0  0  0  0  0  0  0
   21.8567   35.2585   12.3418 N   0  0  1  0  0  4  0  0  0  0  0  0
   19.8069   31.7659   13.4393 N   0  0  0  0  0  0  0  0  0  0  0  0
   19.1127   32.1545   15.7267 O   0  0  0  0  0  0  0  0  0  0  0  0
   14.4633   33.5712   11.4283 O   0  0  0  0  0  0  0  0  0  0  0  0
  2  1  2  0
  1 18  1  0
  2  3  1  0
  4  2  1  0
  3  9  2  0
  3 19  1  0
  4 10  1  6
  4 22  1  0
 10  5  1  0
  5 12  1  0
  5 13  2  0
 12  6  2  0
  6 14  1  0
 11  7  1  0
  7 21  1  0
 21  8  1  1
  9 16  1  0
 10 11  2  0
 11 20  1  0
 12 20  1  0
 13 15  1  0
 14 15  2  0
 16 18  2  0
 21 17  1  0
 18 24  1  0
 19 22  1  0
 19 23  2  0
M  CHG  1  21   1
M  END
$$$$
