
     RDKit          3D

 24 27  0  0  0  0  0  0  0  0999 V2000
   16.7470   32.6826   12.0827 C   0  0  0  0  0  0  0  0  0  0  0  0
   17.8288   32.3995   12.9337 C   0  0  0  0  0  0  0  0  0  0  0  0
   17.7515   32.7265   14.2600 C   0  0  0  0  0  0  0  0  0  0  0  0
   19.1234   31.7487   12.6960 C   0  0  1  0  0  0  0  0  0  0  0  0
   19.5182   31.8059   10.2016 C   0  0  0  0  0  0  0  0  0  0  0  0
   20.2394   32.2242    7.9675 C   0  0  0  0  0  0  0  0  0  0  0  0
   21.4714   33.9072   12.4719 C   0  0  0  0  0  0  0  0  0  0  0  0
   21.3892   35.9360   13.7358 C   0  0  0  0  0  0  0  0  0  0  0  0
   16.6051   33.3437   14.7991 C   0  0  0  0  0  0  0  0  0  0  0  0
   19.8225   32.2510   11.4982 C   0  0  0  0  0  0  0  0  0  0  0  0
   20.8037   33.1720   11.3852 C   0  0  0  0  0  0  0  0  0  0  0  0
   20.3500   32.4954    9.3297 C   0  0  0  0  0  0  0  0  0  0  0  0
   18.6033   30.8768    9.7525 C   0  0  0  0  0  0  0  0  0  0  0  0
   19.3311   31.2996    7.5045 C   0  0  0  0  0  0  0  0  0  0  0  0
   18.5188   30.6325    8.4054 C   0  0  0  0  0  0  0  0  0  0  0  0
   15.5685   33.6035   13.9342 C   0  0  0  0  0  0  0  0  0  0  0  0
   22.1362   35.8962   11.4673 C   0  0  0  0  0  0  0  0  0  0  0  0
   15.6410   33.2771   12.5979 C   0  0  0  0  0  0  0  0  0  0  0  0
   19.0020   32.3599   14.9072 C   0  0  0  0  0  0  0  0  0  0  0  0
   21.1096   33.3063   10.0624 N   0  0  0  0  0  0  0  0  0  0  0  0
   21.2044   35.3251   12.4342 N   0  0  1  0  0  4  0  0  0  0  0  0
   19.8348   31.8015   13.9118 N   0  0  0  0  0  0  0  0  0  0  0  0
   19.2313   32.5380   16.1385 O   0  0  0  0  0  0  0  0  0  0  0  0
   14.5244   33.5864   11.7974 O   0  0  0  0  0  0  0  0  0  0  0  0
  2  1  2  0
  1 18  1  0
  2  3  1  0
  4  2  1  0
  3  9  2  0
  3 19  1  0
  4 10  1  6
  4 22  1  0
 10  5  1  0
  5 12  1  0
  5 13  2  0
 12  6  2  0
  6 14  1  0
 11  7  1  0
  7 21  1  0
 21  8  1  1
  9 16  1  0
 10 11  2  0
 11 20  1  0
 12 20  1  0
 13 15  1  0
 14 15  2  0
 16 18  2  0
 21 17  1  0
 18 24  1  0
 19 22  1  0
 19 23  2  0
M  CHG  1  21   1
M  END
$$$$
