
     RDKit          3D

 24 27  0  0  0  0  0  0  0  0999 V2000
   17.5351   32.2278   13.0657 C   0  0  0  0  0  0  0  0  0  0  0  0
   18.7462   32.2802   13.7762 C   0  0  0  0  0  0  0  0  0  0  0  0
   18.7483   32.6835   15.0836 C   0  0  0  0  0  0  0  0  0  0  0  0
   20.1240   31.9412   13.3982 C   0  0  1  0  0  0  0  0  0  0  0  0
   19.8683   32.1840   10.8968 C   0  0  0  0  0  0  0  0  0  0  0  0
   20.0228   32.7445    8.5842 C   0  0  0  0  0  0  0  0  0  0  0  0
   22.5007   33.9655   12.7083 C   0  0  0  0  0  0  0  0  0  0  0  0
   22.8562   35.8398   14.1509 C   0  0  0  0  0  0  0  0  0  0  0  0
   17.5570   33.0494   15.7415 C   0  0  0  0  0  0  0  0  0  0  0  0
   20.5300   32.4994   12.0946 C   0  0  0  0  0  0  0  0  0  0  0  0
   21.5198   33.3658   11.7889 C   0  0  0  0  0  0  0  0  0  0  0  0
   20.5008   32.8930    9.8844 C   0  0  0  0  0  0  0  0  0  0  0  0
   18.7974   31.3528   10.6434 C   0  0  0  0  0  0  0  0  0  0  0  0
   18.9550   31.9185    8.3159 C   0  0  0  0  0  0  0  0  0  0  0  0
   18.3506   31.2282    9.3525 C   0  0  0  0  0  0  0  0  0  0  0  0
   16.3934   32.9841   15.0123 C   0  0  0  0  0  0  0  0  0  0  0  0
   22.9667   36.0431   11.7735 C   0  0  0  0  0  0  0  0  0  0  0  0
   16.3854   32.5795   13.6956 C   0  0  0  0  0  0  0  0  0  0  0  0
   20.1181   32.6793   15.5737 C   0  0  0  0  0  0  0  0  0  0  0  0
   21.4855   33.5922   10.4439 N   0  0  0  0  0  0  0  0  0  0  0  0
   22.3013   35.3831   12.8919 N   0  0  1  0  0  4  0  0  0  0  0  0
   20.9391   32.2591   14.5034 N   0  0  0  0  0  0  0  0  0  0  0  0
   20.4405   33.0043   16.7530 O   0  0  0  0  0  0  0  0  0  0  0  0
   15.1402   32.5480   13.0385 O   0  0  0  0  0  0  0  0  0  0  0  0
  2  1  2  0
  1 18  1  0
  2  3  1  0
  4  2  1  0
  3  9  2  0
  3 19  1  0
  4 10  1  6
  4 22  1  0
 10  5  1  0
  5 12  1  0
  5 13  2  0
 12  6  2  0
  6 14  1  0
 11  7  1  0
  7 21  1  0
 21  8  1  1
  9 16  1  0
 10 11  2  0
 11 20  1  0
 12 20  1  0
 13 15  1  0
 14 15  2  0
 16 18  2  0
 21 17  1  0
 18 24  1  0
 19 22  1  0
 19 23  2  0
M  CHG  1  21   1
M  END
$$$$
