
     RDKit          3D

 24 27  0  0  0  0  0  0  0  0999 V2000
   17.0367   32.9142   12.6340 C   0  0  0  0  0  0  0  0  0  0  0  0
   18.2437   32.5920   13.2773 C   0  0  0  0  0  0  0  0  0  0  0  0
   18.3922   32.8559   14.6116 C   0  0  0  0  0  0  0  0  0  0  0  0
   19.4754   31.9540   12.7956 C   0  0  1  0  0  0  0  0  0  0  0  0
   19.7061   31.9117   10.2804 C   0  0  0  0  0  0  0  0  0  0  0  0
   20.1820   32.3154    7.9790 C   0  0  0  0  0  0  0  0  0  0  0  0
   21.2271   34.5769   12.2723 C   0  0  0  0  0  0  0  0  0  0  0  0
   23.0388   36.1385   12.2766 C   0  0  0  0  0  0  0  0  0  0  0  0
   17.3569   33.4462   15.3636 C   0  0  0  0  0  0  0  0  0  0  0  0
   19.9675   32.5128   11.5223 C   0  0  0  0  0  0  0  0  0  0  0  0
   20.6940   33.6258   11.2832 C   0  0  0  0  0  0  0  0  0  0  0  0
   20.3005   32.7077    9.3106 C   0  0  0  0  0  0  0  0  0  0  0  0
   19.0146   30.7635    9.9557 C   0  0  0  0  0  0  0  0  0  0  0  0
   19.4951   31.1720    7.6396 C   0  0  0  0  0  0  0  0  0  0  0  0
   18.9159   30.4044    8.6355 C   0  0  0  0  0  0  0  0  0  0  0  0
   16.1919   33.7459   14.6979 C   0  0  0  0  0  0  0  0  0  0  0  0
   23.2405   33.9745   13.2676 C   0  0  0  0  0  0  0  0  0  0  0  0
   16.0370   33.4831   13.3546 C   0  0  0  0  0  0  0  0  0  0  0  0
   19.7308   32.4599   15.0220 C   0  0  0  0  0  0  0  0  0  0  0  0
   20.8852   33.7267    9.9361 N   0  0  0  0  0  0  0  0  0  0  0  0
   22.6573   34.7436   12.1734 N   0  0  1  0  0  4  0  0  0  0  0  0
   20.3809   31.9497   13.8759 N   0  0  0  0  0  0  0  0  0  0  0  0
   20.1645   32.5797   16.2043 O   0  0  0  0  0  0  0  0  0  0  0  0
   14.8043   33.8291   12.7681 O   0  0  0  0  0  0  0  0  0  0  0  0
  2  1  2  0
  1 18  1  0
  2  3  1  0
  4  2  1  0
  3  9  2  0
  3 19  1  0
  4 10  1  6
  4 22  1  0
 10  5  1  0
  5 12  1  0
  5 13  2  0
 12  6  2  0
  6 14  1  0
 11  7  1  0
  7 21  1  0
 21  8  1  1
  9 16  1  0
 10 11  2  0
 11 20  1  0
 12 20  1  0
 13 15  1  0
 14 15  2  0
 16 18  2  0
 21 17  1  0
 18 24  1  0
 19 22  1  0
 19 23  2  0
M  CHG  1  21   1
M  END
$$$$
