
     RDKit          3D

 24 27  0  0  0  0  0  0  0  0999 V2000
   20.3540   31.0546   14.3129 C   0  0  0  0  0  0  0  0  0  0  0  0
   20.4136   32.0671   13.3403 C   0  0  0  0  0  0  0  0  0  0  0  0
   21.5409   32.8344   13.2287 C   0  0  0  0  0  0  0  0  0  0  0  0
   19.4597   32.5003   12.3115 C   0  0  1  0  0  0  0  0  0  0  0  0
   16.9602   32.1817   12.1314 C   0  0  0  0  0  0  0  0  0  0  0  0
   14.5942   32.1199   12.4214 C   0  0  0  0  0  0  0  0  0  0  0  0
   18.4413   33.9261   14.9859 C   0  0  0  0  0  0  0  0  0  0  0  0
   18.7859   35.8389   13.5922 C   0  0  0  0  0  0  0  0  0  0  0  0
   22.6533   32.6327   14.0700 C   0  0  0  0  0  0  0  0  0  0  0  0
   18.0846   32.6676   12.8182 C   0  0  0  0  0  0  0  0  0  0  0  0
   17.6395   33.2525   13.9512 C   0  0  0  0  0  0  0  0  0  0  0  0
   15.8472   32.4995   12.8980 C   0  0  0  0  0  0  0  0  0  0  0  0
   16.8498   31.5107   10.9316 C   0  0  0  0  0  0  0  0  0  0  0  0
   14.4682   31.4499   11.2258 C   0  0  0  0  0  0  0  0  0  0  0  0
   15.6021   31.1508   10.4899 C   0  0  0  0  0  0  0  0  0  0  0  0
   22.5559   31.6323   15.0079 C   0  0  0  0  0  0  0  0  0  0  0  0
   16.9830   35.7294   15.1552 C   0  0  0  0  0  0  0  0  0  0  0  0
   21.4232   30.8571   15.1253 C   0  0  0  0  0  0  0  0  0  0  0  0
   21.3356   33.8197   12.1781 C   0  0  0  0  0  0  0  0  0  0  0  0
   16.2801   33.1399   13.9814 N   0  0  0  0  0  0  0  0  0  0  0  0
   18.3724   35.3650   14.8983 N   0  0  1  0  0  4  0  0  0  0  0  0
   20.0352   33.6133   11.6657 N   0  0  0  0  0  0  0  0  0  0  0  0
   22.2056   34.6735   11.8396 O   0  0  0  0  0  0  0  0  0  0  0  0
   21.4253   29.8591   16.1188 O   0  0  0  0  0  0  0  0  0  0  0  0
  2  1  2  0
  1 18  1  0
  2  3  1  0
  4  2  1  0
  3  9  2  0
  3 19  1  0
  4 10  1  1
  4 22  1  0
 10  5  1  0
  5 12  1  0
  5 13  2  0
 12  6  2  0
  6 14  1  0
 11  7  1  0
  7 21  1  0
 21  8  1  6
  9 16  1  0
 10 11  2  0
 11 20  1  0
 12 20  1  0
 13 15  1  0
 14 15  2  0
 16 18  2  0
 21 17  1  0
 18 24  1  0
 19 22  1  0
 19 23  2  0
M  CHG  1  21   1
M  END
$$$$
