
     RDKit          3D

 24 27  0  0  0  0  0  0  0  0999 V2000
   20.3429   30.2039   12.7403 C   0  0  0  0  0  0  0  0  0  0  0  0
   20.6198   31.4713   12.2004 C   0  0  0  0  0  0  0  0  0  0  0  0
   21.9057   31.9386   12.1927 C   0  0  0  0  0  0  0  0  0  0  0  0
   19.7617   32.4780   11.5630 C   0  0  1  0  0  0  0  0  0  0  0  0
   17.2712   32.2394   11.9121 C   0  0  0  0  0  0  0  0  0  0  0  0
   15.0098   32.2981   12.6661 C   0  0  0  0  0  0  0  0  0  0  0  0
   19.3227   34.2019   14.2197 C   0  0  0  0  0  0  0  0  0  0  0  0
   19.5469   35.8861   15.9030 C   0  0  0  0  0  0  0  0  0  0  0  0
   22.9683   31.1747   12.7154 C   0  0  0  0  0  0  0  0  0  0  0  0
   18.5184   32.7479   12.3095 C   0  0  0  0  0  0  0  0  0  0  0  0
   18.3188   33.4598   13.4396 C   0  0  0  0  0  0  0  0  0  0  0  0
   16.3392   32.6749   12.8445 C   0  0  0  0  0  0  0  0  0  0  0  0
   16.9118   31.4567   10.8350 C   0  0  0  0  0  0  0  0  0  0  0  0
   14.6360   31.5174   11.5960 C   0  0  0  0  0  0  0  0  0  0  0  0
   15.5948   31.1028   10.6875 C   0  0  0  0  0  0  0  0  0  0  0  0
   22.6563   29.9402   13.2339 C   0  0  0  0  0  0  0  0  0  0  0  0
   18.9889   36.4303   13.6451 C   0  0  0  0  0  0  0  0  0  0  0  0
   21.3634   29.4649   13.2449 C   0  0  0  0  0  0  0  0  0  0  0  0
   21.9164   33.2733   11.6137 C   0  0  0  0  0  0  0  0  0  0  0  0
   16.9909   33.4032   13.7480 N   0  0  0  0  0  0  0  0  0  0  0  0
   18.8230   35.4594   14.7217 N   0  0  1  0  0  4  0  0  0  0  0  0
   20.5810   33.5888   11.2769 N   0  0  0  0  0  0  0  0  0  0  0  0
   22.9655   33.9654   11.4697 O   0  0  0  0  0  0  0  0  0  0  0  0
   21.1508   28.1880   13.7994 O   0  0  0  0  0  0  0  0  0  0  0  0
  2  1  2  0
  1 18  1  0
  2  3  1  0
  4  2  1  0
  3  9  2  0
  3 19  1  0
  4 10  1  1
  4 22  1  0
 10  5  1  0
  5 12  1  0
  5 13  2  0
 12  6  2  0
  6 14  1  0
 11  7  1  0
  7 21  1  0
 21  8  1  1
  9 16  1  0
 10 11  2  0
 11 20  1  0
 12 20  1  0
 13 15  1  0
 14 15  2  0
 16 18  2  0
 21 17  1  0
 18 24  1  0
 19 22  1  0
 19 23  2  0
M  CHG  1  21   1
M  END
$$$$
