
     RDKit          3D

 24 27  0  0  0  0  0  0  0  0999 V2000
   18.9429   30.2180   14.8160 C   0  0  0  0  0  0  0  0  0  0  0  0
   19.7818   30.9180   13.9325 C   0  0  0  0  0  0  0  0  0  0  0  0
   21.1058   31.0780   14.2383 C   0  0  0  0  0  0  0  0  0  0  0  0
   19.5329   31.5450   12.6283 C   0  0  1  0  0  0  0  0  0  0  0  0
   17.0870   31.9195   12.1196 C   0  0  0  0  0  0  0  0  0  0  0  0
   14.8657   32.7415   11.8433 C   0  0  0  0  0  0  0  0  0  0  0  0
   19.1429   34.5754   13.5700 C   0  0  0  0  0  0  0  0  0  0  0  0
   20.0922   35.1947   15.6761 C   0  0  0  0  0  0  0  0  0  0  0  0
   21.6543   30.5532   15.4255 C   0  0  0  0  0  0  0  0  0  0  0  0
   18.3208   32.3853   12.6019 C   0  0  0  0  0  0  0  0  0  0  0  0
   18.1360   33.6595   13.0094 C   0  0  0  0  0  0  0  0  0  0  0  0
   16.1775   32.9592   12.2591 C   0  0  0  0  0  0  0  0  0  0  0  0
   16.7223   30.7003   11.5879 C   0  0  0  0  0  0  0  0  0  0  0  0
   14.4870   31.5302   11.3107 C   0  0  0  0  0  0  0  0  0  0  0  0
   15.4230   30.5176   11.1879 C   0  0  0  0  0  0  0  0  0  0  0  0
   20.8011   29.8745   16.2630 C   0  0  0  0  0  0  0  0  0  0  0  0
   18.0387   36.1336   14.8967 C   0  0  0  0  0  0  0  0  0  0  0  0
   19.4672   29.7110   15.9607 C   0  0  0  0  0  0  0  0  0  0  0  0
   21.7394   31.8577   13.1859 C   0  0  0  0  0  0  0  0  0  0  0  0
   16.8297   33.9890   12.7935 N   0  0  0  0  0  0  0  0  0  0  0  0
   18.8700   34.9352   14.9408 N   0  0  1  0  0  4  0  0  0  0  0  0
   20.7383   32.1618   12.2365 N   0  0  0  0  0  0  0  0  0  0  0  0
   22.9657   32.1686   13.1870 O   0  0  0  0  0  0  0  0  0  0  0  0
   18.6789   29.0000   16.8861 O   0  0  0  0  0  0  0  0  0  0  0  0
  2  1  2  0
  1 18  1  0
  2  3  1  0
  4  2  1  0
  3  9  2  0
  3 19  1  0
  4 10  1  1
  4 22  1  0
 10  5  1  0
  5 12  1  0
  5 13  2  0
 12  6  2  0
  6 14  1  0
 11  7  1  0
  7 21  1  0
 21  8  1  1
  9 16  1  0
 10 11  2  0
 11 20  1  0
 12 20  1  0
 13 15  1  0
 14 15  2  0
 16 18  2  0
 21 17  1  0
 18 24  1  0
 19 22  1  0
 19 23  2  0
M  CHG  1  21   1
M  END
$$$$
