
     RDKit          3D

 24 27  0  0  0  0  0  0  0  0999 V2000
   20.9386   30.8681   13.2388 C   0  0  0  0  0  0  0  0  0  0  0  0
   20.8297   32.0304   12.4567 C   0  0  0  0  0  0  0  0  0  0  0  0
   21.9283   32.8226   12.2631 C   0  0  0  0  0  0  0  0  0  0  0  0
   19.7053   32.6157   11.7157 C   0  0  1  0  0  0  0  0  0  0  0  0
   17.2804   32.0173   12.0940 C   0  0  0  0  0  0  0  0  0  0  0  0
   15.0508   31.7254   12.8877 C   0  0  0  0  0  0  0  0  0  0  0  0
   19.0954   34.1338   14.4627 C   0  0  0  0  0  0  0  0  0  0  0  0
   19.2227   35.5658   16.3742 C   0  0  0  0  0  0  0  0  0  0  0  0
   23.1766   32.4994   12.8315 C   0  0  0  0  0  0  0  0  0  0  0  0
   18.4546   32.6746   12.4955 C   0  0  0  0  0  0  0  0  0  0  0  0
   18.1853   33.2974   13.6631 C   0  0  0  0  0  0  0  0  0  0  0  0
   16.3195   32.2742   13.0625 C   0  0  0  0  0  0  0  0  0  0  0  0
   17.0071   31.2443   10.9850 C   0  0  0  0  0  0  0  0  0  0  0  0
   14.7632   30.9520   11.7861 C   0  0  0  0  0  0  0  0  0  0  0  0
   15.7484   30.7183   10.8420 C   0  0  0  0  0  0  0  0  0  0  0  0
   23.2420   31.3542   13.5893 C   0  0  0  0  0  0  0  0  0  0  0  0
   18.0454   36.2076   14.3974 C   0  0  0  0  0  0  0  0  0  0  0  0
   22.1391   30.5532   13.7882 C   0  0  0  0  0  0  0  0  0  0  0  0
   21.5441   33.9673   11.4513 C   0  0  0  0  0  0  0  0  0  0  0  0
   16.8856   33.0423   13.9905 N   0  0  0  0  0  0  0  0  0  0  0  0
   18.3970   35.0985   15.2779 N   0  0  1  0  0  4  0  0  0  0  0  0
   20.1667   33.8301   11.1684 N   0  0  0  0  0  0  0  0  0  0  0  0
   22.3485   34.8789   11.1017 O   0  0  0  0  0  0  0  0  0  0  0  0
   22.3127   29.4025   14.5813 O   0  0  0  0  0  0  0  0  0  0  0  0
  2  1  2  0
  1 18  1  0
  2  3  1  0
  4  2  1  0
  3  9  2  0
  3 19  1  0
  4 10  1  1
  4 22  1  0
 10  5  1  0
  5 12  1  0
  5 13  2  0
 12  6  2  0
  6 14  1  0
 11  7  1  0
  7 21  1  0
 21  8  1  1
  9 16  1  0
 10 11  2  0
 11 20  1  0
 12 20  1  0
 13 15  1  0
 14 15  2  0
 16 18  2  0
 21 17  1  0
 18 24  1  0
 19 22  1  0
 19 23  2  0
M  CHG  1  21   1
M  END
$$$$
