
     RDKit          3D

 24 27  0  0  0  0  0  0  0  0999 V2000
   16.8468   32.9509   16.0995 C   0  0  0  0  0  0  0  0  0  0  0  0
   18.0497   32.4020   15.6239 C   0  0  0  0  0  0  0  0  0  0  0  0
   19.1605   32.4090   16.4225 C   0  0  0  0  0  0  0  0  0  0  0  0
   18.3973   31.7410   14.3596 C   0  0  1  0  0  0  0  0  0  0  0  0
   16.8231   32.0297   12.4052 C   0  0  0  0  0  0  0  0  0  0  0  0
   15.6105   32.7346   10.4768 C   0  0  0  0  0  0  0  0  0  0  0  0
   19.5179   34.4240   13.0298 C   0  0  0  0  0  0  0  0  0  0  0  0
   21.2517   34.2294   11.3938 C   0  0  0  0  0  0  0  0  0  0  0  0
   19.1287   32.9560   17.7209 C   0  0  0  0  0  0  0  0  0  0  0  0
   17.9194   32.4654   13.1669 C   0  0  0  0  0  0  0  0  0  0  0  0
   18.3711   33.6060   12.6022 C   0  0  0  0  0  0  0  0  0  0  0  0
   16.6484   32.9505   11.3809 C   0  0  0  0  0  0  0  0  0  0  0  0
   16.0043   30.9282   12.5409 C   0  0  0  0  0  0  0  0  0  0  0  0
   14.7854   31.6399   10.5993 C   0  0  0  0  0  0  0  0  0  0  0  0
   14.9914   30.7440   11.6344 C   0  0  0  0  0  0  0  0  0  0  0  0
   17.9332   33.4826   18.1494 C   0  0  0  0  0  0  0  0  0  0  0  0
   21.7272   34.2515   13.7346 C   0  0  0  0  0  0  0  0  0  0  0  0
   16.8118   33.4788   17.3494 C   0  0  0  0  0  0  0  0  0  0  0  0
   20.2689   31.8163   15.6897 C   0  0  0  0  0  0  0  0  0  0  0  0
   17.5870   33.8836   11.5206 N   0  0  0  0  0  0  0  0  0  0  0  0
   20.7878   33.8199   12.7048 N   0  0  1  0  0  4  0  0  0  0  0  0
   19.7766   31.4558   14.4154 N   0  0  0  0  0  0  0  0  0  0  0  0
   21.4320   31.6810   16.1687 O   0  0  0  0  0  0  0  0  0  0  0  0
   15.6373   34.0435   17.8833 O   0  0  0  0  0  0  0  0  0  0  0  0
  2  1  2  0
  1 18  1  0
  2  3  1  0
  4  2  1  0
  3  9  2  0
  3 19  1  0
  4 10  1  6
  4 22  1  0
 10  5  1  0
  5 12  1  0
  5 13  2  0
 12  6  2  0
  6 14  1  0
 11  7  1  0
  7 21  1  0
 21  8  1  6
  9 16  1  0
 10 11  2  0
 11 20  1  0
 12 20  1  0
 13 15  1  0
 14 15  2  0
 16 18  2  0
 21 17  1  0
 18 24  1  0
 19 22  1  0
 19 23  2  0
M  CHG  1  21   1
M  END
$$$$
