
     RDKit          3D

 24 27  0  0  0  0  0  0  0  0999 V2000
   20.0728   30.9876   13.8032 C   0  0  0  0  0  0  0  0  0  0  0  0
   20.2458   32.1322   13.0067 C   0  0  0  0  0  0  0  0  0  0  0  0
   21.3913   32.8715   13.1221 C   0  0  0  0  0  0  0  0  0  0  0  0
   19.4065   32.7448   11.9693 C   0  0  1  0  0  0  0  0  0  0  0  0
   16.9932   32.0010   11.9047 C   0  0  0  0  0  0  0  0  0  0  0  0
   14.6447   31.6901   12.1765 C   0  0  0  0  0  0  0  0  0  0  0  0
   18.0235   34.9017   13.8819 C   0  0  0  0  0  0  0  0  0  0  0  0
   19.4278   35.5679   15.6997 C   0  0  0  0  0  0  0  0  0  0  0  0
   22.4108   32.5108   14.0256 C   0  0  0  0  0  0  0  0  0  0  0  0
   17.9907   32.8776   12.3614 C   0  0  0  0  0  0  0  0  0  0  0  0
   17.3941   33.7718   13.1788 C   0  0  0  0  0  0  0  0  0  0  0  0
   15.7981   32.4099   12.4810 C   0  0  0  0  0  0  0  0  0  0  0  0
   17.0576   30.9174   11.0540 C   0  0  0  0  0  0  0  0  0  0  0  0
   14.6933   30.6066   11.3291 C   0  0  0  0  0  0  0  0  0  0  0  0
   15.9042   30.2296   10.7741 C   0  0  0  0  0  0  0  0  0  0  0  0
   22.2038   31.3844   14.7862 C   0  0  0  0  0  0  0  0  0  0  0  0
   17.4389   34.2919   16.0484 C   0  0  0  0  0  0  0  0  0  0  0  0
   21.0522   30.6367   14.6748 C   0  0  0  0  0  0  0  0  0  0  0  0
   21.3082   34.0094   12.2193 C   0  0  0  0  0  0  0  0  0  0  0  0
   16.0646   33.4711   13.2387 N   0  0  0  0  0  0  0  0  0  0  0  0
   18.5741   34.5268   15.1623 N   0  0  1  0  0  4  0  0  0  0  0  0
   20.0620   33.9234   11.5590 N   0  0  0  0  0  0  0  0  0  0  0  0
   22.2217   34.8763   12.0999 O   0  0  0  0  0  0  0  0  0  0  0  0
   20.9387   29.5012   15.5001 O   0  0  0  0  0  0  0  0  0  0  0  0
  2  1  2  0
  1 18  1  0
  2  3  1  0
  4  2  1  0
  3  9  2  0
  3 19  1  0
  4 10  1  1
  4 22  1  0
 10  5  1  0
  5 12  1  0
  5 13  2  0
 12  6  2  0
  6 14  1  0
 11  7  1  0
  7 21  1  0
 21  8  1  1
  9 16  1  0
 10 11  2  0
 11 20  1  0
 12 20  1  0
 13 15  1  0
 14 15  2  0
 16 18  2  0
 21 17  1  0
 18 24  1  0
 19 22  1  0
 19 23  2  0
M  CHG  1  21   1
M  END
$$$$
