
     RDKit          3D

 24 27  0  0  0  0  0  0  0  0999 V2000
   18.4207   32.4347   15.6154 C   0  0  0  0  0  0  0  0  0  0  0  0
   18.0520   33.5713   14.8760 C   0  0  0  0  0  0  0  0  0  0  0  0
   17.1360   34.4473   15.3911 C   0  0  0  0  0  0  0  0  0  0  0  0
   18.4934   34.0824   13.5722 C   0  0  1  0  0  0  0  0  0  0  0  0
   17.3642   32.4794   11.9795 C   0  0  0  0  0  0  0  0  0  0  0  0
   16.7836   30.8626   10.3257 C   0  0  0  0  0  0  0  0  0  0  0  0
   21.0100   32.7518   12.1167 C   0  0  0  0  0  0  0  0  0  0  0  0
   22.3849   31.3305   13.4620 C   0  0  0  0  0  0  0  0  0  0  0  0
   16.5490   34.2380   16.6551 C   0  0  0  0  0  0  0  0  0  0  0  0
   18.5282   33.0514   12.5179 C   0  0  0  0  0  0  0  0  0  0  0  0
   19.5802   32.4909   11.8830 C   0  0  0  0  0  0  0  0  0  0  0  0
   17.7687   31.5702   11.0113 C   0  0  0  0  0  0  0  0  0  0  0  0
   16.0323   32.6903   12.2683 C   0  0  0  0  0  0  0  0  0  0  0  0
   15.4504   31.0622   10.6031 C   0  0  0  0  0  0  0  0  0  0  0  0
   15.0867   31.9779   11.5757 C   0  0  0  0  0  0  0  0  0  0  0  0
   16.9364   33.1151   17.3472 C   0  0  0  0  0  0  0  0  0  0  0  0
   22.0270   33.6262   14.0163 C   0  0  0  0  0  0  0  0  0  0  0  0
   17.8577   32.2292   16.8332 C   0  0  0  0  0  0  0  0  0  0  0  0
   16.9085   35.5106   14.4244 C   0  0  0  0  0  0  0  0  0  0  0  0
   19.0989   31.5956   10.9729 N   0  0  0  0  0  0  0  0  0  0  0  0
   21.4274   32.4190   13.4576 N   0  0  1  0  0  4  0  0  0  0  0  0
   17.7251   35.2337   13.3051 N   0  0  0  0  0  0  0  0  0  0  0  0
   16.1116   36.4738   14.6180 O   0  0  0  0  0  0  0  0  0  0  0  0
   18.1855   31.1099   17.6224 O   0  0  0  0  0  0  0  0  0  0  0  0
  2  1  2  0
  1 18  1  0
  2  3  1  0
  4  2  1  0
  3  9  2  0
  3 19  1  0
  4 10  1  6
  4 22  1  0
 10  5  1  0
  5 12  1  0
  5 13  2  0
 12  6  2  0
  6 14  1  0
 11  7  1  0
  7 21  1  0
 21  8  1  6
  9 16  1  0
 10 11  2  0
 11 20  1  0
 12 20  1  0
 13 15  1  0
 14 15  2  0
 16 18  2  0
 21 17  1  0
 18 24  1  0
 19 22  1  0
 19 23  2  0
M  CHG  1  21   1
M  END
$$$$
