
     RDKit          3D

 25 25  0  0  0  0  0  0  0  0999 V2000
   13.1147    5.6684   46.3609 C   0  0  0  0  0  0  0  0  0  0  0  0
   11.6609   21.2480   41.3387 O   0  0  0  0  0  0  0  0  0  0  0  0
   10.4567   22.6535   42.6365 O   0  0  0  0  0  0  0  0  0  0  0  0
    8.1178   22.2690   42.9284 O   0  0  0  0  0  0  0  0  0  0  0  0
    7.0668   19.1392   41.3369 C   0  0  0  0  0  0  0  0  0  0  0  0
    7.0146   20.3119   42.0484 C   0  0  0  0  0  0  0  0  0  0  0  0
    8.2591   18.7168   40.7780 C   0  0  0  0  0  0  0  0  0  0  0  0
   14.3419    5.9972   45.5243 C   0  0  0  0  0  0  0  0  0  0  0  0
   14.1565    7.3865   44.9535 C   0  0  0  0  0  0  0  0  0  0  0  0
   15.4369    8.1486   45.0349 C   0  0  0  0  0  0  0  0  0  0  0  0
   15.6074    9.0853   43.8877 C   0  0  0  0  0  0  0  0  0  0  0  0
   14.9985   10.4411   44.1675 C   0  0  0  0  0  0  0  0  0  0  0  0
   15.0646   11.3651   42.9763 C   0  0  0  0  0  0  0  0  0  0  0  0
   14.4191   12.6716   43.2797 C   0  0  0  0  0  0  0  0  0  0  0  0
   14.1603   13.4958   42.0490 C   0  0  0  0  0  0  0  0  0  0  0  0
   13.1324   14.5415   42.3470 C   0  0  0  0  0  0  0  0  0  0  0  0
   13.3153   15.8100   41.5685 C   0  0  0  0  0  0  0  0  0  0  0  0
   12.3157   15.9058   40.4461 C   0  0  0  0  0  0  0  0  0  0  0  0
   11.1722   16.8422   40.7988 C   0  0  0  0  0  0  0  0  0  0  0  0
   11.6080   18.2702   40.8110 C   0  0  0  0  0  0  0  0  0  0  0  0
   10.6266   19.1571   40.4282 O   0  0  0  0  0  0  0  0  0  0  0  0
   10.5479   21.5025   41.8463 C   0  0  0  0  0  0  0  0  0  0  0  0
    8.1716   21.0841   42.2097 C   0  0  0  0  0  0  0  0  0  0  0  0
    9.4086   19.4741   40.9332 C   0  0  0  0  0  0  0  0  0  0  0  0
    9.3586   20.6791   41.6629 C   0  0  0  0  0  0  0  0  0  0  0  0
  8  1  1  0
 22  2  2  0
 22  3  1  0
 23  4  1  0
  6  5  2  0
  5  7  1  0
 23  6  1  0
  7 24  2  0
  9  8  1  0
 10  9  1  0
 11 10  1  0
 12 11  1  0
 13 12  1  0
 14 13  1  0
 15 14  1  0
 16 15  1  0
 17 16  1  0
 18 17  1  0
 19 18  1  0
 20 19  1  0
 21 20  1  0
 24 21  1  0
 25 22  1  0
 23 25  2  0
 24 25  1  0
M  END
$$$$
