
     RDKit          3D

 25 25  0  0  0  0  0  0  0  0999 V2000
   17.0401   -0.5567   47.7580 C   0  0  0  0  0  0  0  0  0  0  0  0
   21.3340    2.2656   63.3054 O   0  0  0  0  0  0  0  0  0  0  0  0
   22.3992    4.2400   63.0282 O   0  0  0  0  0  0  0  0  0  0  0  0
   21.7878    5.6219   65.1957 O   0  0  0  0  0  0  0  0  0  0  0  0
   18.1276    5.5750   65.3788 C   0  0  0  0  0  0  0  0  0  0  0  0
   19.4312    5.9424   65.6021 C   0  0  0  0  0  0  0  0  0  0  0  0
   17.8368    4.5221   64.5308 C   0  0  0  0  0  0  0  0  0  0  0  0
   17.8919   -1.0347   48.9242 C   0  0  0  0  0  0  0  0  0  0  0  0
   18.2423    0.1713   49.7687 C   0  0  0  0  0  0  0  0  0  0  0  0
   17.7019    0.0039   51.1496 C   0  0  0  0  0  0  0  0  0  0  0  0
   18.0762    1.1386   52.0411 C   0  0  0  0  0  0  0  0  0  0  0  0
   17.5195    0.9702   53.4372 C   0  0  0  0  0  0  0  0  0  0  0  0
   18.4421    0.1895   54.3407 C   0  0  0  0  0  0  0  0  0  0  0  0
   19.2022    1.0999   55.2402 C   0  0  0  0  0  0  0  0  0  0  0  0
   18.6484    1.1377   56.6376 C   0  0  0  0  0  0  0  0  0  0  0  0
   19.3836    2.1598   57.4461 C   0  0  0  0  0  0  0  0  0  0  0  0
   19.4701    1.8296   58.9062 C   0  0  0  0  0  0  0  0  0  0  0  0
   18.1486    2.0562   59.5922 C   0  0  0  0  0  0  0  0  0  0  0  0
   18.2679    3.0879   60.7013 C   0  0  0  0  0  0  0  0  0  0  0  0
   17.8154    2.5440   62.0161 C   0  0  0  0  0  0  0  0  0  0  0  0
   18.6892    2.7877   63.0521 O   0  0  0  0  0  0  0  0  0  0  0  0
   21.3011    3.5019   63.4832 C   0  0  0  0  0  0  0  0  0  0  0  0
   20.4710    5.2498   64.9699 C   0  0  0  0  0  0  0  0  0  0  0  0
   18.8593    3.8309   63.9018 C   0  0  0  0  0  0  0  0  0  0  0  0
   20.1991    4.2057   64.1285 C   0  0  0  0  0  0  0  0  0  0  0  0
  8  1  1  0
 22  2  2  0
 22  3  1  0
 23  4  1  0
  6  5  2  0
  5  7  1  0
 23  6  1  0
  7 24  2  0
  9  8  1  0
 10  9  1  0
 11 10  1  0
 12 11  1  0
 13 12  1  0
 14 13  1  0
 15 14  1  0
 16 15  1  0
 17 16  1  0
 18 17  1  0
 19 18  1  0
 20 19  1  0
 21 20  1  0
 24 21  1  0
 25 22  1  0
 23 25  2  0
 24 25  1  0
M  END
$$$$
