
     RDKit          3D

 25 25  0  0  0  0  0  0  0  0999 V2000
   14.5212    8.7429   48.3160 C   0  0  0  0  0  0  0  0  0  0  0  0
   10.2964   20.3936   42.2005 O   0  0  0  0  0  0  0  0  0  0  0  0
    9.4630   22.4486   41.7620 O   0  0  0  0  0  0  0  0  0  0  0  0
    7.1941   22.6143   40.9781 O   0  0  0  0  0  0  0  0  0  0  0  0
    5.9868   19.3739   39.7633 C   0  0  0  0  0  0  0  0  0  0  0  0
    6.0291   20.7153   40.0517 C   0  0  0  0  0  0  0  0  0  0  0  0
    7.0503   18.5562   40.0988 C   0  0  0  0  0  0  0  0  0  0  0  0
   14.3671    8.6443   46.8059 C   0  0  0  0  0  0  0  0  0  0  0  0
   14.6333   10.0146   46.2212 C   0  0  0  0  0  0  0  0  0  0  0  0
   14.5822    9.9543   44.7310 C   0  0  0  0  0  0  0  0  0  0  0  0
   14.0049   11.1941   44.1377 C   0  0  0  0  0  0  0  0  0  0  0  0
   13.9546   11.1296   42.6275 C   0  0  0  0  0  0  0  0  0  0  0  0
   14.8479   12.1540   41.9718 C   0  0  0  0  0  0  0  0  0  0  0  0
   14.3630   13.5348   42.2436 C   0  0  0  0  0  0  0  0  0  0  0  0
   13.5664   14.1095   41.1052 C   0  0  0  0  0  0  0  0  0  0  0  0
   13.3741   15.5788   41.3130 C   0  0  0  0  0  0  0  0  0  0  0  0
   12.1893   15.9201   42.1665 C   0  0  0  0  0  0  0  0  0  0  0  0
   11.9327   17.4041   42.1687 C   0  0  0  0  0  0  0  0  0  0  0  0
   11.6004   17.9127   40.7759 C   0  0  0  0  0  0  0  0  0  0  0  0
   10.1826   17.6274   40.4047 C   0  0  0  0  0  0  0  0  0  0  0  0
    9.2612   18.3785   41.0997 O   0  0  0  0  0  0  0  0  0  0  0  0
    9.3686   21.0546   41.6873 C   0  0  0  0  0  0  0  0  0  0  0  0
    7.1521   21.2588   40.6875 C   0  0  0  0  0  0  0  0  0  0  0  0
    8.1649   19.0853   40.7287 C   0  0  0  0  0  0  0  0  0  0  0  0
    8.2119   20.4624   41.0259 C   0  0  0  0  0  0  0  0  0  0  0  0
  8  1  1  0
 22  2  2  0
 22  3  1  0
 23  4  1  0
  6  5  2  0
  5  7  1  0
 23  6  1  0
  7 24  2  0
  9  8  1  0
 10  9  1  0
 11 10  1  0
 12 11  1  0
 13 12  1  0
 14 13  1  0
 15 14  1  0
 16 15  1  0
 17 16  1  0
 18 17  1  0
 19 18  1  0
 20 19  1  0
 21 20  1  0
 24 21  1  0
 25 22  1  0
 23 25  2  0
 24 25  1  0
M  END
$$$$
