
     RDKit          3D

 25 25  0  0  0  0  0  0  0  0999 V2000
   14.3185    4.0383   45.0732 C   0  0  0  0  0  0  0  0  0  0  0  0
    8.2087   18.7574   40.1584 O   0  0  0  0  0  0  0  0  0  0  0  0
    6.9599   20.4011   41.0797 O   0  0  0  0  0  0  0  0  0  0  0  0
    8.0264   22.1131   42.3567 O   0  0  0  0  0  0  0  0  0  0  0  0
   11.6723   21.7402   42.3171 C   0  0  0  0  0  0  0  0  0  0  0  0
   10.4247   22.2460   42.5852 C   0  0  0  0  0  0  0  0  0  0  0  0
   11.8096   20.5952   41.5540 C   0  0  0  0  0  0  0  0  0  0  0  0
   15.0188    5.1967   44.3791 C   0  0  0  0  0  0  0  0  0  0  0  0
   14.5476    6.4803   45.0276 C   0  0  0  0  0  0  0  0  0  0  0  0
   15.1366    7.6563   44.3228 C   0  0  0  0  0  0  0  0  0  0  0  0
   14.2359    8.8436   44.3608 C   0  0  0  0  0  0  0  0  0  0  0  0
   14.8762   10.0614   43.7327 C   0  0  0  0  0  0  0  0  0  0  0  0
   13.9946   11.2840   43.8045 C   0  0  0  0  0  0  0  0  0  0  0  0
   13.8113   11.8879   42.4564 C   0  0  0  0  0  0  0  0  0  0  0  0
   13.9466   13.3853   42.4632 C   0  0  0  0  0  0  0  0  0  0  0  0
   13.9021   13.9040   41.0604 C   0  0  0  0  0  0  0  0  0  0  0  0
   12.6963   14.7446   40.7631 C   0  0  0  0  0  0  0  0  0  0  0  0
   12.6812   15.9892   41.6109 C   0  0  0  0  0  0  0  0  0  0  0  0
   11.4145   16.7982   41.3877 C   0  0  0  0  0  0  0  0  0  0  0  0
   11.5535   17.7408   40.2381 C   0  0  0  0  0  0  0  0  0  0  0  0
   10.7073   18.8254   40.2994 O   0  0  0  0  0  0  0  0  0  0  0  0
    8.2046   19.8173   40.8202 C   0  0  0  0  0  0  0  0  0  0  0  0
    9.2865   21.6016   42.0851 C   0  0  0  0  0  0  0  0  0  0  0  0
   10.6892   19.9517   41.0546 C   0  0  0  0  0  0  0  0  0  0  0  0
    9.4065   20.4681   41.3283 C   0  0  0  0  0  0  0  0  0  0  0  0
  8  1  1  0
 22  2  2  0
 22  3  1  0
 23  4  1  0
  6  5  2  0
  5  7  1  0
 23  6  1  0
  7 24  2  0
  9  8  1  0
 10  9  1  0
 11 10  1  0
 12 11  1  0
 13 12  1  0
 14 13  1  0
 15 14  1  0
 16 15  1  0
 17 16  1  0
 18 17  1  0
 19 18  1  0
 20 19  1  0
 21 20  1  0
 24 21  1  0
 25 22  1  0
 23 25  2  0
 24 25  1  0
M  END
$$$$
