
     RDKit          3D

 25 25  0  0  0  0  0  0  0  0999 V2000
   11.1020   -2.1841   36.2476 C   0  0  0  0  0  0  0  0  0  0  0  0
   12.9731   10.1185   47.4859 O   0  0  0  0  0  0  0  0  0  0  0  0
   12.7506   10.0978   49.7353 O   0  0  0  0  0  0  0  0  0  0  0  0
   14.6795   10.4220   51.1074 O   0  0  0  0  0  0  0  0  0  0  0  0
   17.7463   10.5147   49.1025 C   0  0  0  0  0  0  0  0  0  0  0  0
   16.9086   10.5266   50.1899 C   0  0  0  0  0  0  0  0  0  0  0  0
   17.2284   10.3882   47.8266 C   0  0  0  0  0  0  0  0  0  0  0  0
   12.1349   -1.0902   36.4722 C   0  0  0  0  0  0  0  0  0  0  0  0
   12.3737   -0.9754   37.9622 C   0  0  0  0  0  0  0  0  0  0  0  0
   12.4287    0.4610   38.3628 C   0  0  0  0  0  0  0  0  0  0  0  0
   12.5911    0.6281   39.8353 C   0  0  0  0  0  0  0  0  0  0  0  0
   12.6875    2.0840   40.2335 C   0  0  0  0  0  0  0  0  0  0  0  0
   13.5985    2.3041   41.4161 C   0  0  0  0  0  0  0  0  0  0  0  0
   13.6820    3.7495   41.7619 C   0  0  0  0  0  0  0  0  0  0  0  0
   14.4611    4.0053   43.0222 C   0  0  0  0  0  0  0  0  0  0  0  0
   13.7345    4.9981   43.8739 C   0  0  0  0  0  0  0  0  0  0  0  0
   14.6217    6.0513   44.4674 C   0  0  0  0  0  0  0  0  0  0  0  0
   14.1269    7.4321   44.1257 C   0  0  0  0  0  0  0  0  0  0  0  0
   14.0936    8.3295   45.3515 C   0  0  0  0  0  0  0  0  0  0  0  0
   15.3082    9.1934   45.4398 C   0  0  0  0  0  0  0  0  0  0  0  0
   15.2471   10.1430   46.4352 O   0  0  0  0  0  0  0  0  0  0  0  0
   13.5534   10.1655   48.5914 C   0  0  0  0  0  0  0  0  0  0  0  0
   15.5250   10.4103   50.0081 C   0  0  0  0  0  0  0  0  0  0  0  0
   15.8609   10.2734   47.6375 C   0  0  0  0  0  0  0  0  0  0  0  0
   14.9978   10.2849   48.7519 C   0  0  0  0  0  0  0  0  0  0  0  0
  8  1  1  0
 22  2  2  0
 22  3  1  0
 23  4  1  0
  6  5  2  0
  5  7  1  0
 23  6  1  0
  7 24  2  0
  9  8  1  0
 10  9  1  0
 11 10  1  0
 12 11  1  0
 13 12  1  0
 14 13  1  0
 15 14  1  0
 16 15  1  0
 17 16  1  0
 18 17  1  0
 19 18  1  0
 20 19  1  0
 21 20  1  0
 24 21  1  0
 25 22  1  0
 23 25  2  0
 24 25  1  0
M  END
$$$$
