
     RDKit          3D

 25 25  0  0  0  0  0  0  0  0999 V2000
   16.6013    6.8069   44.0029 C   0  0  0  0  0  0  0  0  0  0  0  0
    7.1883   20.3567   40.9133 O   0  0  0  0  0  0  0  0  0  0  0  0
    6.8724   22.3370   41.9565 O   0  0  0  0  0  0  0  0  0  0  0  0
    8.7677   23.6146   42.6492 O   0  0  0  0  0  0  0  0  0  0  0  0
   11.8989   22.0931   41.5030 C   0  0  0  0  0  0  0  0  0  0  0  0
   11.0262   22.9735   42.0925 C   0  0  0  0  0  0  0  0  0  0  0  0
   11.4224   20.9601   40.8694 C   0  0  0  0  0  0  0  0  0  0  0  0
   17.1973    8.2060   43.9703 C   0  0  0  0  0  0  0  0  0  0  0  0
   16.6218    8.9285   42.7715 C   0  0  0  0  0  0  0  0  0  0  0  0
   15.4869    9.7999   43.1950 C   0  0  0  0  0  0  0  0  0  0  0  0
   14.8650   10.5126   42.0427 C   0  0  0  0  0  0  0  0  0  0  0  0
   13.7542   11.4400   42.4824 C   0  0  0  0  0  0  0  0  0  0  0  0
   13.1912   12.2539   41.3432 C   0  0  0  0  0  0  0  0  0  0  0  0
   12.0993   13.1480   41.8165 C   0  0  0  0  0  0  0  0  0  0  0  0
   11.4590   13.9291   40.7027 C   0  0  0  0  0  0  0  0  0  0  0  0
   10.0018   14.1147   40.9873 C   0  0  0  0  0  0  0  0  0  0  0  0
    9.5552   15.5458   40.9529 C   0  0  0  0  0  0  0  0  0  0  0  0
    9.3553   16.0172   39.5366 C   0  0  0  0  0  0  0  0  0  0  0  0
    8.8195   17.4384   39.4943 C   0  0  0  0  0  0  0  0  0  0  0  0
    9.4274   18.2924   40.5575 C   0  0  0  0  0  0  0  0  0  0  0  0
    9.4865   19.6297   40.2342 O   0  0  0  0  0  0  0  0  0  0  0  0
    7.7233   21.3740   41.4033 C   0  0  0  0  0  0  0  0  0  0  0  0
    9.6487   22.7248   42.0530 C   0  0  0  0  0  0  0  0  0  0  0  0
   10.0613   20.7067   40.8248 C   0  0  0  0  0  0  0  0  0  0  0  0
    9.1622   21.6083   41.4295 C   0  0  0  0  0  0  0  0  0  0  0  0
  8  1  1  0
 22  2  2  0
 22  3  1  0
 23  4  1  0
  6  5  2  0
  5  7  1  0
 23  6  1  0
  7 24  2  0
  9  8  1  0
 10  9  1  0
 11 10  1  0
 12 11  1  0
 13 12  1  0
 14 13  1  0
 15 14  1  0
 16 15  1  0
 17 16  1  0
 18 17  1  0
 19 18  1  0
 20 19  1  0
 21 20  1  0
 24 21  1  0
 25 22  1  0
 23 25  2  0
 24 25  1  0
M  END
$$$$
