
     RDKit          3D

 25 25  0  0  0  0  0  0  0  0999 V2000
   14.8735    4.4986   47.0306 C   0  0  0  0  0  0  0  0  0  0  0  0
   10.5401   22.5223   41.7093 O   0  0  0  0  0  0  0  0  0  0  0  0
   12.1619   21.0427   41.1703 O   0  0  0  0  0  0  0  0  0  0  0  0
    8.1084   21.9256   41.4076 O   0  0  0  0  0  0  0  0  0  0  0  0
    7.9036   18.2873   41.0156 C   0  0  0  0  0  0  0  0  0  0  0  0
    7.5228   19.5994   41.1481 C   0  0  0  0  0  0  0  0  0  0  0  0
    9.2445   17.9495   41.0061 C   0  0  0  0  0  0  0  0  0  0  0  0
   14.3432    5.6697   46.2174 C   0  0  0  0  0  0  0  0  0  0  0  0
   15.4351    6.1061   45.2647 C   0  0  0  0  0  0  0  0  0  0  0  0
   14.9084    7.1317   44.3173 C   0  0  0  0  0  0  0  0  0  0  0  0
   15.6162    8.4369   44.4514 C   0  0  0  0  0  0  0  0  0  0  0  0
   15.3574    9.3461   43.2707 C   0  0  0  0  0  0  0  0  0  0  0  0
   14.5146   10.5441   43.6332 C   0  0  0  0  0  0  0  0  0  0  0  0
   14.2440   11.3863   42.4361 C   0  0  0  0  0  0  0  0  0  0  0  0
   14.7303   12.8003   42.5939 C   0  0  0  0  0  0  0  0  0  0  0  0
   13.7532   13.7446   41.9674 C   0  0  0  0  0  0  0  0  0  0  0  0
   14.3562   15.0533   41.5524 C   0  0  0  0  0  0  0  0  0  0  0  0
   13.5000   16.2097   41.9973 C   0  0  0  0  0  0  0  0  0  0  0  0
   12.3427   16.4444   41.0412 C   0  0  0  0  0  0  0  0  0  0  0  0
   12.3652   17.8240   40.4708 C   0  0  0  0  0  0  0  0  0  0  0  0
   11.5507   18.7156   41.1325 O   0  0  0  0  0  0  0  0  0  0  0  0
   10.8149   21.3434   41.3998 C   0  0  0  0  0  0  0  0  0  0  0  0
    8.4941   20.6001   41.2742 C   0  0  0  0  0  0  0  0  0  0  0  0
   10.2120   18.9329   41.1310 C   0  0  0  0  0  0  0  0  0  0  0  0
    9.8246   20.2814   41.2669 C   0  0  0  0  0  0  0  0  0  0  0  0
  8  1  1  0
 22  2  2  0
 22  3  1  0
 23  4  1  0
  6  5  2  0
  5  7  1  0
 23  6  1  0
  7 24  2  0
  9  8  1  0
 10  9  1  0
 11 10  1  0
 12 11  1  0
 13 12  1  0
 14 13  1  0
 15 14  1  0
 16 15  1  0
 17 16  1  0
 18 17  1  0
 19 18  1  0
 20 19  1  0
 21 20  1  0
 24 21  1  0
 25 22  1  0
 23 25  2  0
 24 25  1  0
M  END
$$$$
