
     RDKit          3D

 25 25  0  0  0  0  0  0  0  0999 V2000
   14.4774    3.7714   43.4146 C   0  0  0  0  0  0  0  0  0  0  0  0
    8.7809   19.2377   40.7977 O   0  0  0  0  0  0  0  0  0  0  0  0
    8.2301   21.0082   42.0907 O   0  0  0  0  0  0  0  0  0  0  0  0
    9.9770   22.4060   42.9479 O   0  0  0  0  0  0  0  0  0  0  0  0
   13.2671   20.8651   42.4645 C   0  0  0  0  0  0  0  0  0  0  0  0
   12.2981   21.7533   42.8600 C   0  0  0  0  0  0  0  0  0  0  0  0
   12.9218   19.7277   41.7578 C   0  0  0  0  0  0  0  0  0  0  0  0
   14.7862    5.1250   44.0361 C   0  0  0  0  0  0  0  0  0  0  0  0
   13.6363    6.0559   43.7172 C   0  0  0  0  0  0  0  0  0  0  0  0
   14.1559    7.3397   43.1616 C   0  0  0  0  0  0  0  0  0  0  0  0
   13.1158    8.4078   43.1474 C   0  0  0  0  0  0  0  0  0  0  0  0
   13.4369    9.4985   42.1500 C   0  0  0  0  0  0  0  0  0  0  0  0
   12.1996   10.1282   41.5588 C   0  0  0  0  0  0  0  0  0  0  0  0
   12.1624   11.5903   41.8355 C   0  0  0  0  0  0  0  0  0  0  0  0
   12.6947   12.4148   40.6963 C   0  0  0  0  0  0  0  0  0  0  0  0
   11.7106   13.4851   40.3429 C   0  0  0  0  0  0  0  0  0  0  0  0
   12.0912   14.2820   39.1310 C   0  0  0  0  0  0  0  0  0  0  0  0
   12.2878   15.7344   39.4773 C   0  0  0  0  0  0  0  0  0  0  0  0
   11.0230   16.5401   39.2326 C   0  0  0  0  0  0  0  0  0  0  0  0
   11.2462   18.0012   39.4440 C   0  0  0  0  0  0  0  0  0  0  0  0
   11.1461   18.3971   40.7591 O   0  0  0  0  0  0  0  0  0  0  0  0
    9.1927   20.1571   41.5369 C   0  0  0  0  0  0  0  0  0  0  0  0
   10.9553   21.5083   42.5476 C   0  0  0  0  0  0  0  0  0  0  0  0
   11.5960   19.4778   41.4438 C   0  0  0  0  0  0  0  0  0  0  0  0
   10.5983   20.3875   41.8487 C   0  0  0  0  0  0  0  0  0  0  0  0
  8  1  1  0
 22  2  2  0
 22  3  1  0
 23  4  1  0
  6  5  2  0
  5  7  1  0
 23  6  1  0
  7 24  2  0
  9  8  1  0
 10  9  1  0
 11 10  1  0
 12 11  1  0
 13 12  1  0
 14 13  1  0
 15 14  1  0
 16 15  1  0
 17 16  1  0
 18 17  1  0
 19 18  1  0
 20 19  1  0
 21 20  1  0
 24 21  1  0
 25 22  1  0
 23 25  2  0
 24 25  1  0
M  END
$$$$
