
     RDKit          3D

 25 25  0  0  0  0  0  0  0  0999 V2000
   13.6850   10.4738   49.6578 C   0  0  0  0  0  0  0  0  0  0  0  0
   10.0303   22.7232   42.0725 O   0  0  0  0  0  0  0  0  0  0  0  0
   10.8409   21.2179   40.5937 O   0  0  0  0  0  0  0  0  0  0  0  0
    7.9795   22.2139   43.4416 O   0  0  0  0  0  0  0  0  0  0  0  0
    7.3300   18.6168   43.1739 C   0  0  0  0  0  0  0  0  0  0  0  0
    7.2159   19.9283   43.5625 C   0  0  0  0  0  0  0  0  0  0  0  0
    8.3118   18.2399   42.2759 C   0  0  0  0  0  0  0  0  0  0  0  0
   12.9409   10.5442   48.3329 C   0  0  0  0  0  0  0  0  0  0  0  0
   13.9276   10.2316   47.2287 C   0  0  0  0  0  0  0  0  0  0  0  0
   13.9629   11.3503   46.2418 C   0  0  0  0  0  0  0  0  0  0  0  0
   14.9492   11.1063   45.1507 C   0  0  0  0  0  0  0  0  0  0  0  0
   15.0021   12.2542   44.1674 C   0  0  0  0  0  0  0  0  0  0  0  0
   15.3738   11.8094   42.7741 C   0  0  0  0  0  0  0  0  0  0  0  0
   14.5831   12.5471   41.7512 C   0  0  0  0  0  0  0  0  0  0  0  0
   14.9501   14.0028   41.6664 C   0  0  0  0  0  0  0  0  0  0  0  0
   13.7362   14.8124   41.3350 C   0  0  0  0  0  0  0  0  0  0  0  0
   14.0059   15.9546   40.4016 C   0  0  0  0  0  0  0  0  0  0  0  0
   12.7342   16.4392   39.7567 C   0  0  0  0  0  0  0  0  0  0  0  0
   12.1956   17.6782   40.4521 C   0  0  0  0  0  0  0  0  0  0  0  0
   10.7081   17.7652   40.3575 C   0  0  0  0  0  0  0  0  0  0  0  0
   10.1821   18.9262   40.8787 O   0  0  0  0  0  0  0  0  0  0  0  0
    9.9751   21.5520   41.6407 C   0  0  0  0  0  0  0  0  0  0  0  0
    8.0957   20.8889   43.0488 C   0  0  0  0  0  0  0  0  0  0  0  0
    9.1869   19.1835   41.7634 C   0  0  0  0  0  0  0  0  0  0  0  0
    9.0724   20.5313   42.1598 C   0  0  0  0  0  0  0  0  0  0  0  0
  8  1  1  0
 22  2  2  0
 22  3  1  0
 23  4  1  0
  6  5  2  0
  5  7  1  0
 23  6  1  0
  7 24  2  0
  9  8  1  0
 10  9  1  0
 11 10  1  0
 12 11  1  0
 13 12  1  0
 14 13  1  0
 15 14  1  0
 16 15  1  0
 17 16  1  0
 18 17  1  0
 19 18  1  0
 20 19  1  0
 21 20  1  0
 24 21  1  0
 25 22  1  0
 23 25  2  0
 24 25  1  0
M  END
$$$$
