
     RDKit          3D

 25 25  0  0  0  0  0  0  0  0999 V2000
   12.8583    8.5576   47.6349 C   0  0  0  0  0  0  0  0  0  0  0  0
   10.5073   21.2365   42.4100 O   0  0  0  0  0  0  0  0  0  0  0  0
    8.9974   22.6410   41.4840 O   0  0  0  0  0  0  0  0  0  0  0  0
    6.6935   21.6043   42.4946 O   0  0  0  0  0  0  0  0  0  0  0  0
    6.6735   18.1569   41.2503 C   0  0  0  0  0  0  0  0  0  0  0  0
    6.2340   19.3498   41.7681 C   0  0  0  0  0  0  0  0  0  0  0  0
    8.0077   17.9873   40.9287 C   0  0  0  0  0  0  0  0  0  0  0  0
   13.8092    8.3286   46.4698 C   0  0  0  0  0  0  0  0  0  0  0  0
   13.4038    9.2613   45.3490 C   0  0  0  0  0  0  0  0  0  0  0  0
   14.3250    9.0958   44.1868 C   0  0  0  0  0  0  0  0  0  0  0  0
   14.5759   10.3844   43.4804 C   0  0  0  0  0  0  0  0  0  0  0  0
   15.8764   11.0241   43.9128 C   0  0  0  0  0  0  0  0  0  0  0  0
   15.8885   12.5179   43.6999 C   0  0  0  0  0  0  0  0  0  0  0  0
   14.7094   12.9513   42.9014 C   0  0  0  0  0  0  0  0  0  0  0  0
   14.7350   14.4175   42.5693 C   0  0  0  0  0  0  0  0  0  0  0  0
   13.5427   14.7688   41.7363 C   0  0  0  0  0  0  0  0  0  0  0  0
   13.7643   15.9380   40.8239 C   0  0  0  0  0  0  0  0  0  0  0  0
   12.4995   16.3008   40.0912 C   0  0  0  0  0  0  0  0  0  0  0  0
   12.2241   17.7934   40.1634 C   0  0  0  0  0  0  0  0  0  0  0  0
   11.2524   18.1265   41.2469 C   0  0  0  0  0  0  0  0  0  0  0  0
   10.2350   18.9638   40.8469 O   0  0  0  0  0  0  0  0  0  0  0  0
    9.3815   21.3556   41.8811 C   0  0  0  0  0  0  0  0  0  0  0  0
    7.1384   20.3992   41.9718 C   0  0  0  0  0  0  0  0  0  0  0  0
    8.9094   19.0198   41.1277 C   0  0  0  0  0  0  0  0  0  0  0  0
    8.4616   20.2463   41.6588 C   0  0  0  0  0  0  0  0  0  0  0  0
  8  1  1  0
 22  2  2  0
 22  3  1  0
 23  4  1  0
  6  5  2  0
  5  7  1  0
 23  6  1  0
  7 24  2  0
  9  8  1  0
 10  9  1  0
 11 10  1  0
 12 11  1  0
 13 12  1  0
 14 13  1  0
 15 14  1  0
 16 15  1  0
 17 16  1  0
 18 17  1  0
 19 18  1  0
 20 19  1  0
 21 20  1  0
 24 21  1  0
 25 22  1  0
 23 25  2  0
 24 25  1  0
M  END
$$$$
