
     RDKit          3D

 25 25  0  0  0  0  0  0  0  0999 V2000
   16.7063    8.8135   47.6678 C   0  0  0  0  0  0  0  0  0  0  0  0
    9.3937   22.8315   41.1517 O   0  0  0  0  0  0  0  0  0  0  0  0
    8.6831   22.6526   43.2901 O   0  0  0  0  0  0  0  0  0  0  0  0
    6.1800   21.7161   42.9514 O   0  0  0  0  0  0  0  0  0  0  0  0
    6.6260   18.6054   41.0654 C   0  0  0  0  0  0  0  0  0  0  0  0
    6.0535   19.5695   41.8572 C   0  0  0  0  0  0  0  0  0  0  0  0
    7.8988   18.7883   40.5566 C   0  0  0  0  0  0  0  0  0  0  0  0
   15.4859    9.1280   46.8158 C   0  0  0  0  0  0  0  0  0  0  0  0
   15.9449    9.9540   45.6337 C   0  0  0  0  0  0  0  0  0  0  0  0
   15.1128   11.1872   45.5168 C   0  0  0  0  0  0  0  0  0  0  0  0
   15.1208   11.7415   44.1329 C   0  0  0  0  0  0  0  0  0  0  0  0
   14.2582   12.9781   44.0125 C   0  0  0  0  0  0  0  0  0  0  0  0
   14.1977   13.5095   42.6015 C   0  0  0  0  0  0  0  0  0  0  0  0
   13.2759   14.6748   42.5107 C   0  0  0  0  0  0  0  0  0  0  0  0
   13.7107   15.6859   41.4864 C   0  0  0  0  0  0  0  0  0  0  0  0
   12.7353   16.8199   41.4488 C   0  0  0  0  0  0  0  0  0  0  0  0
   13.0950   17.8963   40.4685 C   0  0  0  0  0  0  0  0  0  0  0  0
   13.3599   19.2020   41.1707 C   0  0  0  0  0  0  0  0  0  0  0  0
   12.1468   20.1157   41.1209 C   0  0  0  0  0  0  0  0  0  0  0  0
   11.0256   19.5076   40.3447 C   0  0  0  0  0  0  0  0  0  0  0  0
    9.8537   20.2287   40.3979 O   0  0  0  0  0  0  0  0  0  0  0  0
    8.7319   22.1683   41.9784 C   0  0  0  0  0  0  0  0  0  0  0  0
    6.7593   20.7424   42.1517 C   0  0  0  0  0  0  0  0  0  0  0  0
    8.6046   19.9452   40.8435 C   0  0  0  0  0  0  0  0  0  0  0  0
    8.0196   20.9375   41.6560 C   0  0  0  0  0  0  0  0  0  0  0  0
  8  1  1  0
 22  2  2  0
 22  3  1  0
 23  4  1  0
  6  5  2  0
  5  7  1  0
 23  6  1  0
  7 24  2  0
  9  8  1  0
 10  9  1  0
 11 10  1  0
 12 11  1  0
 13 12  1  0
 14 13  1  0
 15 14  1  0
 16 15  1  0
 17 16  1  0
 18 17  1  0
 19 18  1  0
 20 19  1  0
 21 20  1  0
 24 21  1  0
 25 22  1  0
 23 25  2  0
 24 25  1  0
M  END
$$$$
