
     RDKit          3D

 25 25  0  0  0  0  0  0  0  0999 V2000
   16.2500   11.4357   47.8960 C   0  0  0  0  0  0  0  0  0  0  0  0
    9.3938   21.3302   42.0825 O   0  0  0  0  0  0  0  0  0  0  0  0
    8.4093   23.2100   41.3034 O   0  0  0  0  0  0  0  0  0  0  0  0
    6.1415   23.0770   40.5214 O   0  0  0  0  0  0  0  0  0  0  0  0
    5.1374   19.5940   39.9800 C   0  0  0  0  0  0  0  0  0  0  0  0
    5.0955   20.9659   40.0015 C   0  0  0  0  0  0  0  0  0  0  0  0
    6.2523   18.9244   40.4498 C   0  0  0  0  0  0  0  0  0  0  0  0
   16.6679   11.4432   46.4334 C   0  0  0  0  0  0  0  0  0  0  0  0
   15.4317   11.6977   45.5982 C   0  0  0  0  0  0  0  0  0  0  0  0
   15.8194   12.2257   44.2575 C   0  0  0  0  0  0  0  0  0  0  0  0
   14.6321   12.5435   43.4137 C   0  0  0  0  0  0  0  0  0  0  0  0
   15.0010   12.7132   41.9568 C   0  0  0  0  0  0  0  0  0  0  0  0
   14.0214   13.5818   41.2065 C   0  0  0  0  0  0  0  0  0  0  0  0
   14.3925   15.0192   41.3156 C   0  0  0  0  0  0  0  0  0  0  0  0
   14.1224   15.7903   40.0534 C   0  0  0  0  0  0  0  0  0  0  0  0
   13.5525   17.1317   40.3918 C   0  0  0  0  0  0  0  0  0  0  0  0
   12.0539   17.1601   40.4345 C   0  0  0  0  0  0  0  0  0  0  0  0
   11.5559   17.3729   41.8398 C   0  0  0  0  0  0  0  0  0  0  0  0
   10.0389   17.3157   41.9064 C   0  0  0  0  0  0  0  0  0  0  0  0
    9.4049   18.2160   40.8979 C   0  0  0  0  0  0  0  0  0  0  0  0
    8.4747   19.0817   41.4284 O   0  0  0  0  0  0  0  0  0  0  0  0
    8.4142   21.8224   41.4830 C   0  0  0  0  0  0  0  0  0  0  0  0
    6.1845   21.6910   40.5004 C   0  0  0  0  0  0  0  0  0  0  0  0
    7.3339   19.6337   40.9458 C   0  0  0  0  0  0  0  0  0  0  0  0
    7.2945   21.0426   40.9691 C   0  0  0  0  0  0  0  0  0  0  0  0
  8  1  1  0
 22  2  2  0
 22  3  1  0
 23  4  1  0
  6  5  2  0
  5  7  1  0
 23  6  1  0
  7 24  2  0
  9  8  1  0
 10  9  1  0
 11 10  1  0
 12 11  1  0
 13 12  1  0
 14 13  1  0
 15 14  1  0
 16 15  1  0
 17 16  1  0
 18 17  1  0
 19 18  1  0
 20 19  1  0
 21 20  1  0
 24 21  1  0
 25 22  1  0
 23 25  2  0
 24 25  1  0
M  END
$$$$
