
     RDKit          3D

 25 25  0  0  0  0  0  0  0  0999 V2000
   13.4952    2.2083   43.0604 C   0  0  0  0  0  0  0  0  0  0  0  0
    8.1673   19.1532   42.2635 O   0  0  0  0  0  0  0  0  0  0  0  0
    9.3771   17.6518   41.0836 O   0  0  0  0  0  0  0  0  0  0  0  0
    9.1326   21.3751   42.9280 O   0  0  0  0  0  0  0  0  0  0  0  0
   12.7263   21.2932   42.2125 C   0  0  0  0  0  0  0  0  0  0  0  0
   11.5005   21.7387   42.6404 C   0  0  0  0  0  0  0  0  0  0  0  0
   12.8500   20.0415   41.6378 C   0  0  0  0  0  0  0  0  0  0  0  0
   13.6656    3.5227   43.8070 C   0  0  0  0  0  0  0  0  0  0  0  0
   13.4985    4.6486   42.8096 C   0  0  0  0  0  0  0  0  0  0  0  0
   13.7690    5.9602   43.4679 C   0  0  0  0  0  0  0  0  0  0  0  0
   13.5930    7.1063   42.5310 C   0  0  0  0  0  0  0  0  0  0  0  0
   14.0235    8.4169   43.1512 C   0  0  0  0  0  0  0  0  0  0  0  0
   13.8921    9.5810   42.2001 C   0  0  0  0  0  0  0  0  0  0  0  0
   14.9043   10.6303   42.5002 C   0  0  0  0  0  0  0  0  0  0  0  0
   14.2890   11.9182   42.9730 C   0  0  0  0  0  0  0  0  0  0  0  0
   13.5363   12.5614   41.8512 C   0  0  0  0  0  0  0  0  0  0  0  0
   12.8864   13.8604   42.2239 C   0  0  0  0  0  0  0  0  0  0  0  0
   13.7777   15.0276   41.8902 C   0  0  0  0  0  0  0  0  0  0  0  0
   13.0661   16.3516   42.1126 C   0  0  0  0  0  0  0  0  0  0  0  0
   12.7084   17.0128   40.8226 C   0  0  0  0  0  0  0  0  0  0  0  0
   11.7440   17.9883   40.9434 O   0  0  0  0  0  0  0  0  0  0  0  0
    9.2845   18.8566   41.7890 C   0  0  0  0  0  0  0  0  0  0  0  0
   10.3707   20.9244   42.4951 C   0  0  0  0  0  0  0  0  0  0  0  0
   11.7375   19.2296   41.4894 C   0  0  0  0  0  0  0  0  0  0  0  0
   10.4772   19.6838   41.9280 C   0  0  0  0  0  0  0  0  0  0  0  0
  8  1  1  0
 22  2  2  0
 22  3  1  0
 23  4  1  0
  6  5  2  0
  5  7  1  0
 23  6  1  0
  7 24  2  0
  9  8  1  0
 10  9  1  0
 11 10  1  0
 12 11  1  0
 13 12  1  0
 14 13  1  0
 15 14  1  0
 16 15  1  0
 17 16  1  0
 18 17  1  0
 19 18  1  0
 20 19  1  0
 21 20  1  0
 24 21  1  0
 25 22  1  0
 23 25  2  0
 24 25  1  0
M  END
$$$$
