
     RDKit          3D

 25 25  0  0  0  0  0  0  0  0999 V2000
   12.6775    6.5876   44.9179 C   0  0  0  0  0  0  0  0  0  0  0  0
    8.4394   22.4646   40.0653 O   0  0  0  0  0  0  0  0  0  0  0  0
   10.6045   22.1708   40.6450 O   0  0  0  0  0  0  0  0  0  0  0  0
    7.1063   21.5631   42.3540 O   0  0  0  0  0  0  0  0  0  0  0  0
    8.2802   18.0981   42.5760 C   0  0  0  0  0  0  0  0  0  0  0  0
    7.5282   19.2271   42.7863 C   0  0  0  0  0  0  0  0  0  0  0  0
    9.3722   18.1373   41.7286 C   0  0  0  0  0  0  0  0  0  0  0  0
   14.0183    7.2755   45.1252 C   0  0  0  0  0  0  0  0  0  0  0  0
   13.9910    8.5849   44.3668 C   0  0  0  0  0  0  0  0  0  0  0  0
   15.3755    9.1229   44.2240 C   0  0  0  0  0  0  0  0  0  0  0  0
   15.3820   10.5590   43.8237 C   0  0  0  0  0  0  0  0  0  0  0  0
   14.3493   10.8554   42.7592 C   0  0  0  0  0  0  0  0  0  0  0  0
   14.7216   12.0401   41.9019 C   0  0  0  0  0  0  0  0  0  0  0  0
   13.5109   12.6638   41.3011 C   0  0  0  0  0  0  0  0  0  0  0  0
   13.8376   13.8071   40.3809 C   0  0  0  0  0  0  0  0  0  0  0  0
   13.3713   15.0935   40.9865 C   0  0  0  0  0  0  0  0  0  0  0  0
   13.9067   16.3150   40.3011 C   0  0  0  0  0  0  0  0  0  0  0  0
   13.3535   17.5708   40.9217 C   0  0  0  0  0  0  0  0  0  0  0  0
   12.9715   18.5920   39.8633 C   0  0  0  0  0  0  0  0  0  0  0  0
   12.1090   19.6748   40.4228 C   0  0  0  0  0  0  0  0  0  0  0  0
   10.7605   19.4671   40.2368 O   0  0  0  0  0  0  0  0  0  0  0  0
    9.2747   21.7357   40.6418 C   0  0  0  0  0  0  0  0  0  0  0  0
    7.8668   20.4230   42.1413 C   0  0  0  0  0  0  0  0  0  0  0  0
    9.7149   19.3162   41.0871 C   0  0  0  0  0  0  0  0  0  0  0  0
    8.9447   20.4774   41.3004 C   0  0  0  0  0  0  0  0  0  0  0  0
  8  1  1  0
 22  2  2  0
 22  3  1  0
 23  4  1  0
  6  5  2  0
  5  7  1  0
 23  6  1  0
  7 24  2  0
  9  8  1  0
 10  9  1  0
 11 10  1  0
 12 11  1  0
 13 12  1  0
 14 13  1  0
 15 14  1  0
 16 15  1  0
 17 16  1  0
 18 17  1  0
 19 18  1  0
 20 19  1  0
 21 20  1  0
 24 21  1  0
 25 22  1  0
 23 25  2  0
 24 25  1  0
M  END
$$$$
