
     RDKit          3D

 25 25  0  0  0  0  0  0  0  0999 V2000
   14.0731    6.2627   46.5647 C   0  0  0  0  0  0  0  0  0  0  0  0
    9.6522   22.9387   40.7960 O   0  0  0  0  0  0  0  0  0  0  0  0
   11.1620   21.7342   41.9706 O   0  0  0  0  0  0  0  0  0  0  0  0
    7.1730   22.2632   41.4683 O   0  0  0  0  0  0  0  0  0  0  0  0
    7.1994   18.5986   41.5222 C   0  0  0  0  0  0  0  0  0  0  0  0
    6.7365   19.8909   41.5225 C   0  0  0  0  0  0  0  0  0  0  0  0
    8.5579   18.3461   41.4688 C   0  0  0  0  0  0  0  0  0  0  0  0
   14.7858    7.5008   46.0419 C   0  0  0  0  0  0  0  0  0  0  0  0
   13.8480    8.2088   45.0882 C   0  0  0  0  0  0  0  0  0  0  0  0
   14.4725    9.4732   44.6002 C   0  0  0  0  0  0  0  0  0  0  0  0
   13.5738   10.2247   43.6782 C   0  0  0  0  0  0  0  0  0  0  0  0
   14.2320   11.4751   43.1391 C   0  0  0  0  0  0  0  0  0  0  0  0
   13.7697   12.7260   43.8453 C   0  0  0  0  0  0  0  0  0  0  0  0
   14.6244   13.8892   43.4817 C   0  0  0  0  0  0  0  0  0  0  0  0
   15.0988   13.8432   42.0556 C   0  0  0  0  0  0  0  0  0  0  0  0
   14.6527   15.0755   41.3337 C   0  0  0  0  0  0  0  0  0  0  0  0
   13.2233   15.0295   40.8826 C   0  0  0  0  0  0  0  0  0  0  0  0
   12.8202   16.3239   40.2268 C   0  0  0  0  0  0  0  0  0  0  0  0
   11.8595   17.1136   41.0999 C   0  0  0  0  0  0  0  0  0  0  0  0
   11.6533   18.4998   40.5848 C   0  0  0  0  0  0  0  0  0  0  0  0
   10.8090   19.2637   41.3593 O   0  0  0  0  0  0  0  0  0  0  0  0
    9.9088   21.8537   41.3600 C   0  0  0  0  0  0  0  0  0  0  0  0
    7.6416   20.9579   41.4685 C   0  0  0  0  0  0  0  0  0  0  0  0
    9.4604   19.3956   41.4160 C   0  0  0  0  0  0  0  0  0  0  0  0
    8.9886   20.7239   41.4156 C   0  0  0  0  0  0  0  0  0  0  0  0
  8  1  1  0
 22  2  2  0
 22  3  1  0
 23  4  1  0
  6  5  2  0
  5  7  1  0
 23  6  1  0
  7 24  2  0
  9  8  1  0
 10  9  1  0
 11 10  1  0
 12 11  1  0
 13 12  1  0
 14 13  1  0
 15 14  1  0
 16 15  1  0
 17 16  1  0
 18 17  1  0
 19 18  1  0
 20 19  1  0
 21 20  1  0
 24 21  1  0
 25 22  1  0
 23 25  2  0
 24 25  1  0
M  END
$$$$
