
     RDKit          3D

 25 25  0  0  0  0  0  0  0  0999 V2000
   13.9311    7.9575   46.5604 C   0  0  0  0  0  0  0  0  0  0  0  0
    7.1483   22.4406   41.1733 O   0  0  0  0  0  0  0  0  0  0  0  0
    9.3841   22.3351   41.4900 O   0  0  0  0  0  0  0  0  0  0  0  0
    5.7940   20.4043   40.6268 O   0  0  0  0  0  0  0  0  0  0  0  0
    8.0498   17.5157   40.6267 C   0  0  0  0  0  0  0  0  0  0  0  0
    6.9032   18.2639   40.5281 C   0  0  0  0  0  0  0  0  0  0  0  0
    9.2553   18.1254   40.9222 C   0  0  0  0  0  0  0  0  0  0  0  0
   14.4207    7.9330   45.1204 C   0  0  0  0  0  0  0  0  0  0  0  0
   14.4871    9.3624   44.6278 C   0  0  0  0  0  0  0  0  0  0  0  0
   14.8867    9.3906   43.1903 C   0  0  0  0  0  0  0  0  0  0  0  0
   15.0306   10.7818   42.6741 C   0  0  0  0  0  0  0  0  0  0  0  0
   13.6994   11.4943   42.5861 C   0  0  0  0  0  0  0  0  0  0  0  0
   13.6548   12.5069   41.4682 C   0  0  0  0  0  0  0  0  0  0  0  0
   14.4655   13.7087   41.8061 C   0  0  0  0  0  0  0  0  0  0  0  0
   13.6701   14.7707   42.5134 C   0  0  0  0  0  0  0  0  0  0  0  0
   13.0425   15.6859   41.5096 C   0  0  0  0  0  0  0  0  0  0  0  0
   13.9104   16.8453   41.1208 C   0  0  0  0  0  0  0  0  0  0  0  0
   13.4759   18.1060   41.8207 C   0  0  0  0  0  0  0  0  0  0  0  0
   12.3809   18.8216   41.0476 C   0  0  0  0  0  0  0  0  0  0  0  0
   11.6790   19.8353   41.8896 C   0  0  0  0  0  0  0  0  0  0  0  0
   10.4380   20.1946   41.4131 O   0  0  0  0  0  0  0  0  0  0  0  0
    8.1610   21.7103   41.2227 C   0  0  0  0  0  0  0  0  0  0  0  0
    6.9528   19.6491   40.7270 C   0  0  0  0  0  0  0  0  0  0  0  0
    9.3134   19.4950   41.1213 C   0  0  0  0  0  0  0  0  0  0  0  0
    8.1380   20.2665   41.0204 C   0  0  0  0  0  0  0  0  0  0  0  0
  8  1  1  0
 22  2  2  0
 22  3  1  0
 23  4  1  0
  6  5  2  0
  5  7  1  0
 23  6  1  0
  7 24  2  0
  9  8  1  0
 10  9  1  0
 11 10  1  0
 12 11  1  0
 13 12  1  0
 14 13  1  0
 15 14  1  0
 16 15  1  0
 17 16  1  0
 18 17  1  0
 19 18  1  0
 20 19  1  0
 21 20  1  0
 24 21  1  0
 25 22  1  0
 23 25  2  0
 24 25  1  0
M  END
$$$$
