
     RDKit          3D

 25 25  0  0  0  0  0  0  0  0999 V2000
   14.7599    5.4779   46.3807 C   0  0  0  0  0  0  0  0  0  0  0  0
    8.1809   18.4385   39.8947 O   0  0  0  0  0  0  0  0  0  0  0  0
    6.4160   19.7004   40.5293 O   0  0  0  0  0  0  0  0  0  0  0  0
    6.6576   21.1390   42.4361 O   0  0  0  0  0  0  0  0  0  0  0  0
   10.1844   21.5344   43.3521 C   0  0  0  0  0  0  0  0  0  0  0  0
    8.8213   21.6969   43.3465 C   0  0  0  0  0  0  0  0  0  0  0  0
   10.7844   20.6589   42.4657 C   0  0  0  0  0  0  0  0  0  0  0  0
   14.4847    6.0011   44.9791 C   0  0  0  0  0  0  0  0  0  0  0  0
   14.4844    7.5133   45.0393 C   0  0  0  0  0  0  0  0  0  0  0  0
   14.1923    8.0794   43.6898 C   0  0  0  0  0  0  0  0  0  0  0  0
   14.1490    9.5695   43.7028 C   0  0  0  0  0  0  0  0  0  0  0  0
   13.8405   10.1396   42.3363 C   0  0  0  0  0  0  0  0  0  0  0  0
   13.7990   11.6480   42.3315 C   0  0  0  0  0  0  0  0  0  0  0  0
   13.5498   12.1693   40.9597 C   0  0  0  0  0  0  0  0  0  0  0  0
   12.7020   13.4110   40.9510 C   0  0  0  0  0  0  0  0  0  0  0  0
   13.5764   14.6202   40.8418 C   0  0  0  0  0  0  0  0  0  0  0  0
   12.9186   15.8871   41.3013 C   0  0  0  0  0  0  0  0  0  0  0  0
   13.6392   17.0966   40.7666 C   0  0  0  0  0  0  0  0  0  0  0  0
   12.6663   18.1203   40.2059 C   0  0  0  0  0  0  0  0  0  0  0  0
   11.2902   17.9368   40.7553 C   0  0  0  0  0  0  0  0  0  0  0  0
   10.4954   19.0570   40.6569 O   0  0  0  0  0  0  0  0  0  0  0  0
    7.7711   19.3655   40.6255 C   0  0  0  0  0  0  0  0  0  0  0  0
    8.0347   20.9745   42.4409 C   0  0  0  0  0  0  0  0  0  0  0  0
   10.0140   19.9409   41.5659 C   0  0  0  0  0  0  0  0  0  0  0  0
    8.6140   20.1049   41.5576 C   0  0  0  0  0  0  0  0  0  0  0  0
  8  1  1  0
 22  2  2  0
 22  3  1  0
 23  4  1  0
  6  5  2  0
  5  7  1  0
 23  6  1  0
  7 24  2  0
  9  8  1  0
 10  9  1  0
 11 10  1  0
 12 11  1  0
 13 12  1  0
 14 13  1  0
 15 14  1  0
 16 15  1  0
 17 16  1  0
 18 17  1  0
 19 18  1  0
 20 19  1  0
 21 20  1  0
 24 21  1  0
 25 22  1  0
 23 25  2  0
 24 25  1  0
M  END
$$$$
