
     RDKit          3D

 25 25  0  0  0  0  0  0  0  0999 V2000
   15.6204   11.3100   48.5546 C   0  0  0  0  0  0  0  0  0  0  0  0
    9.5813   21.9501   40.6827 O   0  0  0  0  0  0  0  0  0  0  0  0
    9.0518   21.7719   42.8731 O   0  0  0  0  0  0  0  0  0  0  0  0
    6.3106   22.5196   42.3858 O   0  0  0  0  0  0  0  0  0  0  0  0
    5.1294   19.5674   40.5630 C   0  0  0  0  0  0  0  0  0  0  0  0
    5.1185   20.7158   41.3150 C   0  0  0  0  0  0  0  0  0  0  0  0
    6.3264   19.0429   40.1111 C   0  0  0  0  0  0  0  0  0  0  0  0
   15.4797   12.0338   47.2241 C   0  0  0  0  0  0  0  0  0  0  0  0
   16.0977   11.1614   46.1529 C   0  0  0  0  0  0  0  0  0  0  0  0
   16.1852   11.9138   44.8672 C   0  0  0  0  0  0  0  0  0  0  0  0
   14.8685   12.4795   44.4562 C   0  0  0  0  0  0  0  0  0  0  0  0
   14.8276   12.8059   42.9800 C   0  0  0  0  0  0  0  0  0  0  0  0
   14.5661   14.2682   42.7150 C   0  0  0  0  0  0  0  0  0  0  0  0
   15.1205   14.6774   41.3955 C   0  0  0  0  0  0  0  0  0  0  0  0
   14.0834   15.2744   40.4852 C   0  0  0  0  0  0  0  0  0  0  0  0
   14.0515   16.7601   40.6596 C   0  0  0  0  0  0  0  0  0  0  0  0
   12.9529   17.2411   41.5598 C   0  0  0  0  0  0  0  0  0  0  0  0
   11.6017   17.0141   40.9345 C   0  0  0  0  0  0  0  0  0  0  0  0
   10.8077   18.3065   40.8428 C   0  0  0  0  0  0  0  0  0  0  0  0
    9.4616   18.0886   40.2348 C   0  0  0  0  0  0  0  0  0  0  0  0
    8.7496   19.2483   40.0238 O   0  0  0  0  0  0  0  0  0  0  0  0
    8.7537   21.5424   41.5255 C   0  0  0  0  0  0  0  0  0  0  0  0
    6.3226   21.3592   41.6263 C   0  0  0  0  0  0  0  0  0  0  0  0
    7.5223   19.6725   40.4150 C   0  0  0  0  0  0  0  0  0  0  0  0
    7.5149   20.8521   41.1867 C   0  0  0  0  0  0  0  0  0  0  0  0
  8  1  1  0
 22  2  2  0
 22  3  1  0
 23  4  1  0
  6  5  2  0
  5  7  1  0
 23  6  1  0
  7 24  2  0
  9  8  1  0
 10  9  1  0
 11 10  1  0
 12 11  1  0
 13 12  1  0
 14 13  1  0
 15 14  1  0
 16 15  1  0
 17 16  1  0
 18 17  1  0
 19 18  1  0
 20 19  1  0
 21 20  1  0
 24 21  1  0
 25 22  1  0
 23 25  2  0
 24 25  1  0
M  END
$$$$
