
     RDKit          3D

 23 25  0  0  0  0  0  0  0  0999 V2000
   27.6871    4.1831    9.4314 O   0  0  0  0  0  0  0  0  0  0  0  0
   27.0233    4.7900   10.3203 C   0  0  0  0  0  0  0  0  0  0  0  0
   27.4537    4.6726   11.7317 C   0  0  0  0  0  0  0  0  0  0  0  0
   28.7105    3.8093   11.8050 C   0  0  0  0  0  0  0  0  0  0  0  0
   25.9003    5.5502    9.9161 N   0  0  0  0  0  0  0  0  0  0  0  0
   25.4915    5.6925    8.5359 C   0  0  0  0  0  0  0  0  0  0  0  0
   24.1883    5.0751    8.2298 C   0  0  0  0  0  0  0  0  0  0  0  0
   23.0799    5.7677    8.0470 O   0  0  0  0  0  0  0  0  0  0  0  0
   22.0839    4.9962    7.7930 N   0  0  0  0  0  0  0  0  0  0  0  0
   22.5199    3.7228    7.8003 C   0  0  0  0  0  0  0  0  0  0  0  0
   21.7503    2.4915    7.5632 C   0  0  0  0  0  0  0  0  0  0  0  0
   23.8802    3.7451    8.0807 C   0  0  0  0  0  0  0  0  0  0  0  0
   25.1111    6.2223   10.9328 C   0  0  0  0  0  0  0  0  0  0  0  0
   24.1261    7.6025   10.7752 S   0  0  0  0  0  0  0  0  0  0  0  0
   23.5883    7.7094   12.3919 C   0  0  0  0  0  0  0  0  0  0  0  0
   24.2227    6.6380   12.9731 C   0  0  0  0  0  0  0  0  0  0  0  0
   24.9840    5.9104   12.2023 N   0  0  0  0  0  0  0  0  0  0  0  0
   24.0549    6.3124   14.4190 C   0  0  0  0  0  0  0  0  0  0  0  0
   23.6265    7.2656   15.3092 C   0  0  0  0  0  0  0  0  0  0  0  0
   23.4634    6.9812   16.6634 C   0  0  0  0  0  0  0  0  0  0  0  0
   23.7328    5.7213   17.1405 C   0  0  0  0  0  0  0  0  0  0  0  0
   24.1636    4.7526   16.2614 C   0  0  0  0  0  0  0  0  0  0  0  0
   24.3170    5.0590   14.9261 C   0  0  0  0  0  0  0  0  0  0  0  0
  1  2  2  0
  2  3  1  0
  2  5  1  0
  3  4  1  0
  5  6  1  0
  5 13  1  0
  6  7  1  0
  7  8  1  0
  7 12  2  0
  8  9  1  0
  9 10  2  0
 10 11  1  0
 10 12  1  0
 13 14  1  0
 13 17  2  0
 14 15  1  0
 15 16  2  0
 16 17  1  0
 16 18  1  0
 18 19  2  0
 18 23  1  0
 19 20  1  0
 20 21  2  0
 21 22  1  0
 22 23  2  0
M  END
$$$$
