
     RDKit          3D

 23 25  0  0  0  0  0  0  0  0999 V2000
   28.3409    3.8713    9.4288 O   0  0  0  0  0  0  0  0  0  0  0  0
   27.3597    4.2351   10.1388 C   0  0  0  0  0  0  0  0  0  0  0  0
   27.1880    3.6271   11.4774 C   0  0  0  0  0  0  0  0  0  0  0  0
   28.3699    2.7054   11.7675 C   0  0  0  0  0  0  0  0  0  0  0  0
   26.4753    5.2064    9.6127 N   0  0  0  0  0  0  0  0  0  0  0  0
   26.6960    5.8838    8.3538 C   0  0  0  0  0  0  0  0  0  0  0  0
   26.0667    5.2205    7.1975 C   0  0  0  0  0  0  0  0  0  0  0  0
   26.4193    4.0252    6.7636 O   0  0  0  0  0  0  0  0  0  0  0  0
   25.7192    3.6730    5.7449 N   0  0  0  0  0  0  0  0  0  0  0  0
   24.8500    4.6618    5.4643 C   0  0  0  0  0  0  0  0  0  0  0  0
   23.8456    4.7188    4.3907 C   0  0  0  0  0  0  0  0  0  0  0  0
   25.0536    5.6768    6.3904 C   0  0  0  0  0  0  0  0  0  0  0  0
   25.2816    5.5437   10.3673 C   0  0  0  0  0  0  0  0  0  0  0  0
   23.6501    5.3194    9.9338 S   0  0  0  0  0  0  0  0  0  0  0  0
   22.9287    5.9671   11.3390 C   0  0  0  0  0  0  0  0  0  0  0  0
   24.0274    6.3285   12.0808 C   0  0  0  0  0  0  0  0  0  0  0  0
   25.1995    6.0981   11.5552 N   0  0  0  0  0  0  0  0  0  0  0  0
   23.8971    6.9558   13.4277 C   0  0  0  0  0  0  0  0  0  0  0  0
   25.0100    7.2703   14.1676 C   0  0  0  0  0  0  0  0  0  0  0  0
   24.9092    7.8566   15.4274 C   0  0  0  0  0  0  0  0  0  0  0  0
   23.6744    8.1354   15.9613 C   0  0  0  0  0  0  0  0  0  0  0  0
   22.5471    7.8266   15.2328 C   0  0  0  0  0  0  0  0  0  0  0  0
   22.6733    7.2469   13.9885 C   0  0  0  0  0  0  0  0  0  0  0  0
  1  2  2  0
  2  3  1  0
  2  5  1  0
  3  4  1  0
  5  6  1  0
  5 13  1  0
  6  7  1  0
  7  8  1  0
  7 12  2  0
  8  9  1  0
  9 10  2  0
 10 11  1  0
 10 12  1  0
 13 14  1  0
 13 17  2  0
 14 15  1  0
 15 16  2  0
 16 17  1  0
 16 18  1  0
 18 19  2  0
 18 23  1  0
 19 20  1  0
 20 21  2  0
 21 22  1  0
 22 23  2  0
M  END
$$$$
