
     RDKit          3D

 23 25  0  0  0  0  0  0  0  0999 V2000
   27.0740    4.1242    8.3349 O   0  0  0  0  0  0  0  0  0  0  0  0
   26.3076    4.1487    9.3405 C   0  0  0  0  0  0  0  0  0  0  0  0
   26.0901    2.8957   10.0980 C   0  0  0  0  0  0  0  0  0  0  0  0
   26.9664    1.7927    9.5097 C   0  0  0  0  0  0  0  0  0  0  0  0
   25.6964    5.3768    9.6876 N   0  0  0  0  0  0  0  0  0  0  0  0
   26.0493    6.6406    9.0787 C   0  0  0  0  0  0  0  0  0  0  0  0
   26.8755    7.5095    9.9364 C   0  0  0  0  0  0  0  0  0  0  0  0
   28.1798    7.3653   10.0768 O   0  0  0  0  0  0  0  0  0  0  0  0
   28.6636    8.2474   10.8766 N   0  0  0  0  0  0  0  0  0  0  0  0
   27.6562    9.0307   11.3049 C   0  0  0  0  0  0  0  0  0  0  0  0
   27.7163   10.1733   12.2299 C   0  0  0  0  0  0  0  0  0  0  0  0
   26.4863    8.5746   10.7109 C   0  0  0  0  0  0  0  0  0  0  0  0
   24.6592    5.3766   10.7036 C   0  0  0  0  0  0  0  0  0  0  0  0
   22.9728    5.2524   10.5023 S   0  0  0  0  0  0  0  0  0  0  0  0
   22.5201    5.3324   12.1464 C   0  0  0  0  0  0  0  0  0  0  0  0
   23.7383    5.4539   12.7703 C   0  0  0  0  0  0  0  0  0  0  0  0
   24.7963    5.4725   12.0063 N   0  0  0  0  0  0  0  0  0  0  0  0
   23.8571    5.5599   14.2533 C   0  0  0  0  0  0  0  0  0  0  0  0
   25.0491    5.3015   14.8834 C   0  0  0  0  0  0  0  0  0  0  0  0
   25.1804    5.3950   16.2673 C   0  0  0  0  0  0  0  0  0  0  0  0
   24.1019    5.7533   17.0394 C   0  0  0  0  0  0  0  0  0  0  0  0
   22.8982    6.0161   16.4239 C   0  0  0  0  0  0  0  0  0  0  0  0
   22.7940    5.9167   15.0529 C   0  0  0  0  0  0  0  0  0  0  0  0
  1  2  2  0
  2  3  1  0
  2  5  1  0
  3  4  1  0
  5  6  1  0
  5 13  1  0
  6  7  1  0
  7  8  1  0
  7 12  2  0
  8  9  1  0
  9 10  2  0
 10 11  1  0
 10 12  1  0
 13 14  1  0
 13 17  2  0
 14 15  1  0
 15 16  2  0
 16 17  1  0
 16 18  1  0
 18 19  2  0
 18 23  1  0
 19 20  1  0
 20 21  2  0
 21 22  1  0
 22 23  2  0
M  END
$$$$
