
     RDKit          3D

 23 25  0  0  0  0  0  0  0  0999 V2000
   23.8649    4.7469    8.6667 O   0  0  0  0  0  0  0  0  0  0  0  0
   23.5584    5.2570    9.7825 C   0  0  0  0  0  0  0  0  0  0  0  0
   22.1797    5.0778   10.2902 C   0  0  0  0  0  0  0  0  0  0  0  0
   21.3559    4.3177    9.2537 C   0  0  0  0  0  0  0  0  0  0  0  0
   24.5535    5.9750   10.4872 N   0  0  0  0  0  0  0  0  0  0  0  0
   25.8864    6.2001    9.9723 C   0  0  0  0  0  0  0  0  0  0  0  0
   26.9615    5.7350   10.8672 C   0  0  0  0  0  0  0  0  0  0  0  0
   27.5009    6.4865   11.8084 O   0  0  0  0  0  0  0  0  0  0  0  0
   28.4145    5.8485   12.4489 N   0  0  0  0  0  0  0  0  0  0  0  0
   28.5100    4.6097   11.9313 C   0  0  0  0  0  0  0  0  0  0  0  0
   29.4113    3.5181   12.3326 C   0  0  0  0  0  0  0  0  0  0  0  0
   27.5796    4.5092   10.9048 C   0  0  0  0  0  0  0  0  0  0  0  0
   24.2271    6.5195   11.7930 C   0  0  0  0  0  0  0  0  0  0  0  0
   23.4828    8.0038   12.1710 S   0  0  0  0  0  0  0  0  0  0  0  0
   23.4786    7.8532   13.8716 C   0  0  0  0  0  0  0  0  0  0  0  0
   24.0714    6.6263   14.0490 C   0  0  0  0  0  0  0  0  0  0  0  0
   24.4358    5.9830   12.9735 N   0  0  0  0  0  0  0  0  0  0  0  0
   24.2923    6.0467   15.4054 C   0  0  0  0  0  0  0  0  0  0  0  0
   23.9224    6.7362   16.5334 C   0  0  0  0  0  0  0  0  0  0  0  0
   24.1202    6.2120   17.8090 C   0  0  0  0  0  0  0  0  0  0  0  0
   24.6984    4.9754   17.9641 C   0  0  0  0  0  0  0  0  0  0  0  0
   25.0757    4.2696   16.8432 C   0  0  0  0  0  0  0  0  0  0  0  0
   24.8692    4.8101   15.5920 C   0  0  0  0  0  0  0  0  0  0  0  0
  1  2  2  0
  2  3  1  0
  2  5  1  0
  3  4  1  0
  5  6  1  0
  5 13  1  0
  6  7  1  0
  7  8  1  0
  7 12  2  0
  8  9  1  0
  9 10  2  0
 10 11  1  0
 10 12  1  0
 13 14  1  0
 13 17  2  0
 14 15  1  0
 15 16  2  0
 16 17  1  0
 16 18  1  0
 18 19  2  0
 18 23  1  0
 19 20  1  0
 20 21  2  0
 21 22  1  0
 22 23  2  0
M  END
$$$$
