
     RDKit          3D

 23 25  0  0  0  0  0  0  0  0999 V2000
   26.7398    4.6312    9.9013 O   0  0  0  0  0  0  0  0  0  0  0  0
   26.5154    5.2203   10.9976 C   0  0  0  0  0  0  0  0  0  0  0  0
   27.6641    5.7457   11.7692 C   0  0  0  0  0  0  0  0  0  0  0  0
   28.9507    5.5073   10.9829 C   0  0  0  0  0  0  0  0  0  0  0  0
   25.1736    5.3445   11.4292 N   0  0  0  0  0  0  0  0  0  0  0  0
   24.0635    4.6879   10.7741 C   0  0  0  0  0  0  0  0  0  0  0  0
   23.1013    5.6148   10.1513 C   0  0  0  0  0  0  0  0  0  0  0  0
   21.9412    5.9327   10.6943 O   0  0  0  0  0  0  0  0  0  0  0  0
   21.2900    6.7577    9.9547 N   0  0  0  0  0  0  0  0  0  0  0  0
   22.0274    7.0202    8.8597 C   0  0  0  0  0  0  0  0  0  0  0  0
   21.7026    7.9035    7.7288 C   0  0  0  0  0  0  0  0  0  0  0  0
   23.2063    6.2926    8.9616 C   0  0  0  0  0  0  0  0  0  0  0  0
   24.8882    6.1688   12.5900 C   0  0  0  0  0  0  0  0  0  0  0  0
   24.8705    7.8673   12.7103 S   0  0  0  0  0  0  0  0  0  0  0  0
   24.4566    7.9948   14.3616 C   0  0  0  0  0  0  0  0  0  0  0  0
   24.3542    6.6753   14.7308 C   0  0  0  0  0  0  0  0  0  0  0  0
   24.5797    5.7819   13.8066 N   0  0  0  0  0  0  0  0  0  0  0  0
   24.0008    6.2716   16.1225 C   0  0  0  0  0  0  0  0  0  0  0  0
   23.7624    4.9560   16.4340 C   0  0  0  0  0  0  0  0  0  0  0  0
   23.4311    4.5588   17.7277 C   0  0  0  0  0  0  0  0  0  0  0  0
   23.3355    5.4915   18.7319 C   0  0  0  0  0  0  0  0  0  0  0  0
   23.5714    6.8161   18.4374 C   0  0  0  0  0  0  0  0  0  0  0  0
   23.8976    7.1836   17.1494 C   0  0  0  0  0  0  0  0  0  0  0  0
  1  2  2  0
  2  3  1  0
  2  5  1  0
  3  4  1  0
  5  6  1  0
  5 13  1  0
  6  7  1  0
  7  8  1  0
  7 12  2  0
  8  9  1  0
  9 10  2  0
 10 11  1  0
 10 12  1  0
 13 14  1  0
 13 17  2  0
 14 15  1  0
 15 16  2  0
 16 17  1  0
 16 18  1  0
 18 19  2  0
 18 23  1  0
 19 20  1  0
 20 21  2  0
 21 22  1  0
 22 23  2  0
M  END
$$$$
