
     RDKit          3D

 23 25  0  0  0  0  0  0  0  0999 V2000
   27.7722    3.4772    7.4726 O   0  0  0  0  0  0  0  0  0  0  0  0
   27.0383    3.7670    8.4608 C   0  0  0  0  0  0  0  0  0  0  0  0
   26.9995    2.8382    9.6127 C   0  0  0  0  0  0  0  0  0  0  0  0
   27.9227    1.6542    9.3366 C   0  0  0  0  0  0  0  0  0  0  0  0
   26.2905    4.9672    8.4111 N   0  0  0  0  0  0  0  0  0  0  0  0
   26.5138    6.0030    7.4265 C   0  0  0  0  0  0  0  0  0  0  0  0
   27.3866    7.0957    7.8928 C   0  0  0  0  0  0  0  0  0  0  0  0
   28.7038    7.0167    7.9127 O   0  0  0  0  0  0  0  0  0  0  0  0
   29.2297    8.1004    8.3611 N   0  0  0  0  0  0  0  0  0  0  0  0
   28.2391    8.9606    8.6622 C   0  0  0  0  0  0  0  0  0  0  0  0
   28.3456   10.3240    9.2048 C   0  0  0  0  0  0  0  0  0  0  0  0
   27.0343    8.3349    8.3683 C   0  0  0  0  0  0  0  0  0  0  0  0
   25.2416    5.1761    9.3932 C   0  0  0  0  0  0  0  0  0  0  0  0
   23.5545    5.1887    9.1616 S   0  0  0  0  0  0  0  0  0  0  0  0
   23.0849    5.4915   10.7747 C   0  0  0  0  0  0  0  0  0  0  0  0
   24.2989    5.5667   11.4140 C   0  0  0  0  0  0  0  0  0  0  0  0
   25.3660    5.4018   10.6810 N   0  0  0  0  0  0  0  0  0  0  0  0
   24.4031    5.8240   12.8795 C   0  0  0  0  0  0  0  0  0  0  0  0
   25.5570    5.5334   13.5641 C   0  0  0  0  0  0  0  0  0  0  0  0
   25.6741    5.7664   14.9327 C   0  0  0  0  0  0  0  0  0  0  0  0
   24.6200    6.2999   15.6338 C   0  0  0  0  0  0  0  0  0  0  0  0
   23.4545    6.5976   14.9630 C   0  0  0  0  0  0  0  0  0  0  0  0
   23.3636    6.3577   13.6085 C   0  0  0  0  0  0  0  0  0  0  0  0
  1  2  2  0
  2  3  1  0
  2  5  1  0
  3  4  1  0
  5  6  1  0
  5 13  1  0
  6  7  1  0
  7  8  1  0
  7 12  2  0
  8  9  1  0
  9 10  2  0
 10 11  1  0
 10 12  1  0
 13 14  1  0
 13 17  2  0
 14 15  1  0
 15 16  2  0
 16 17  1  0
 16 18  1  0
 18 19  2  0
 18 23  1  0
 19 20  1  0
 20 21  2  0
 21 22  1  0
 22 23  2  0
M  END
$$$$
