
     RDKit          3D

 23 25  0  0  0  0  0  0  0  0999 V2000
   23.3628    8.3380   10.0201 O   0  0  0  0  0  0  0  0  0  0  0  0
   23.7986    7.1914    9.7125 C   0  0  0  0  0  0  0  0  0  0  0  0
   24.0399    6.8832    8.2851 C   0  0  0  0  0  0  0  0  0  0  0  0
   23.6631    8.0955    7.4371 C   0  0  0  0  0  0  0  0  0  0  0  0
   24.0315    6.2616   10.7534 N   0  0  0  0  0  0  0  0  0  0  0  0
   24.2721    4.8539   10.5230 C   0  0  0  0  0  0  0  0  0  0  0  0
   25.6994    4.4870   10.4895 C   0  0  0  0  0  0  0  0  0  0  0  0
   26.6763    5.3710   10.4119 O   0  0  0  0  0  0  0  0  0  0  0  0
   27.8259    4.7963   10.3993 N   0  0  0  0  0  0  0  0  0  0  0  0
   27.6367    3.4656   10.4712 C   0  0  0  0  0  0  0  0  0  0  0  0
   28.6486    2.3977   10.4876 C   0  0  0  0  0  0  0  0  0  0  0  0
   26.2677    3.2376   10.5308 C   0  0  0  0  0  0  0  0  0  0  0  0
   24.0338    6.7370   12.1253 C   0  0  0  0  0  0  0  0  0  0  0  0
   23.8710    8.3322   12.6987 S   0  0  0  0  0  0  0  0  0  0  0  0
   23.9797    8.0070   14.3711 C   0  0  0  0  0  0  0  0  0  0  0  0
   24.1402    6.6424   14.3846 C   0  0  0  0  0  0  0  0  0  0  0  0
   24.1624    6.0366   13.2289 N   0  0  0  0  0  0  0  0  0  0  0  0
   24.2827    5.8783   15.6576 C   0  0  0  0  0  0  0  0  0  0  0  0
   24.2765    6.5235   16.8694 C   0  0  0  0  0  0  0  0  0  0  0  0
   24.4082    5.8279   18.0694 C   0  0  0  0  0  0  0  0  0  0  0  0
   24.5490    4.4613   18.0620 C   0  0  0  0  0  0  0  0  0  0  0  0
   24.5574    3.7975   16.8552 C   0  0  0  0  0  0  0  0  0  0  0  0
   24.4254    4.5087   15.6817 C   0  0  0  0  0  0  0  0  0  0  0  0
  1  2  2  0
  2  3  1  0
  2  5  1  0
  3  4  1  0
  5  6  1  0
  5 13  1  0
  6  7  1  0
  7  8  1  0
  7 12  2  0
  8  9  1  0
  9 10  2  0
 10 11  1  0
 10 12  1  0
 13 14  1  0
 13 17  2  0
 14 15  1  0
 15 16  2  0
 16 17  1  0
 16 18  1  0
 18 19  2  0
 18 23  1  0
 19 20  1  0
 20 21  2  0
 21 22  1  0
 22 23  2  0
M  END
$$$$
