
     RDKit          3D

 23 25  0  0  0  0  0  0  0  0999 V2000
   23.3519    5.5550    9.1199 O   0  0  0  0  0  0  0  0  0  0  0  0
   23.3262    6.1806   10.2186 C   0  0  0  0  0  0  0  0  0  0  0  0
   22.6931    7.5179   10.2593 C   0  0  0  0  0  0  0  0  0  0  0  0
   21.9409    7.7592    8.9529 C   0  0  0  0  0  0  0  0  0  0  0  0
   23.9073    5.5666   11.3533 N   0  0  0  0  0  0  0  0  0  0  0  0
   24.6159    4.3066   11.3002 C   0  0  0  0  0  0  0  0  0  0  0  0
   26.0766    4.4456   11.1584 C   0  0  0  0  0  0  0  0  0  0  0  0
   26.6974    4.4513    9.9938 O   0  0  0  0  0  0  0  0  0  0  0  0
   27.9669    4.5861   10.1423 N   0  0  0  0  0  0  0  0  0  0  0  0
   28.2337    4.6772   11.4584 C   0  0  0  0  0  0  0  0  0  0  0  0
   29.5388    4.8404   12.1177 C   0  0  0  0  0  0  0  0  0  0  0  0
   27.0264    4.5891   12.1398 C   0  0  0  0  0  0  0  0  0  0  0  0
   23.7936    6.2300   12.6398 C   0  0  0  0  0  0  0  0  0  0  0  0
   23.3948    7.8526   12.9686 S   0  0  0  0  0  0  0  0  0  0  0  0
   23.4836    7.7897   14.6723 C   0  0  0  0  0  0  0  0  0  0  0  0
   23.8268    6.4771   14.8899 C   0  0  0  0  0  0  0  0  0  0  0  0
   23.9743    5.7205   13.8368 N   0  0  0  0  0  0  0  0  0  0  0  0
   24.0235    5.9315   16.2641 C   0  0  0  0  0  0  0  0  0  0  0  0
   24.3874    4.6216   16.4551 C   0  0  0  0  0  0  0  0  0  0  0  0
   24.5760    4.0932   17.7304 C   0  0  0  0  0  0  0  0  0  0  0  0
   24.3985    4.8861   18.8382 C   0  0  0  0  0  0  0  0  0  0  0  0
   24.0335    6.2028   18.6652 C   0  0  0  0  0  0  0  0  0  0  0  0
   23.8530    6.7018   17.3929 C   0  0  0  0  0  0  0  0  0  0  0  0
  1  2  2  0
  2  3  1  0
  2  5  1  0
  3  4  1  0
  5  6  1  0
  5 13  1  0
  6  7  1  0
  7  8  1  0
  7 12  2  0
  8  9  1  0
  9 10  2  0
 10 11  1  0
 10 12  1  0
 13 14  1  0
 13 17  2  0
 14 15  1  0
 15 16  2  0
 16 17  1  0
 16 18  1  0
 18 19  2  0
 18 23  1  0
 19 20  1  0
 20 21  2  0
 21 22  1  0
 22 23  2  0
M  END
$$$$
