
     RDKit          3D

 23 25  0  0  0  0  0  0  0  0999 V2000
   25.4902    3.2694    8.9238 O   0  0  0  0  0  0  0  0  0  0  0  0
   24.7956    3.9859    9.7007 C   0  0  0  0  0  0  0  0  0  0  0  0
   23.3231    3.9734    9.5511 C   0  0  0  0  0  0  0  0  0  0  0  0
   22.9319    2.9351    8.5026 C   0  0  0  0  0  0  0  0  0  0  0  0
   25.4664    4.7644   10.6734 N   0  0  0  0  0  0  0  0  0  0  0  0
   26.9057    4.8958   10.7324 C   0  0  0  0  0  0  0  0  0  0  0  0
   27.3978    6.2493   10.4179 C   0  0  0  0  0  0  0  0  0  0  0  0
   27.4390    6.7426    9.1945 O   0  0  0  0  0  0  0  0  0  0  0  0
   27.9071    7.9396    9.1894 N   0  0  0  0  0  0  0  0  0  0  0  0
   28.2004    8.2867   10.4564 C   0  0  0  0  0  0  0  0  0  0  0  0
   28.7586    9.5549   10.9511 C   0  0  0  0  0  0  0  0  0  0  0  0
   27.8799    7.2097   11.2730 C   0  0  0  0  0  0  0  0  0  0  0  0
   24.6769    5.4731   11.6646 C   0  0  0  0  0  0  0  0  0  0  0  0
   23.4510    6.6296   11.4198 S   0  0  0  0  0  0  0  0  0  0  0  0
   23.0689    6.9360   13.0552 C   0  0  0  0  0  0  0  0  0  0  0  0
   23.9394    6.0995   13.7113 C   0  0  0  0  0  0  0  0  0  0  0  0
   24.7362    5.3761   12.9731 N   0  0  0  0  0  0  0  0  0  0  0  0
   23.9792    6.0141   15.1998 C   0  0  0  0  0  0  0  0  0  0  0  0
   24.8541    5.1661   15.8323 C   0  0  0  0  0  0  0  0  0  0  0  0
   24.9066    5.0719   17.2214 C   0  0  0  0  0  0  0  0  0  0  0  0
   24.0703    5.8383   17.9964 C   0  0  0  0  0  0  0  0  0  0  0  0
   23.1860    6.6947   17.3786 C   0  0  0  0  0  0  0  0  0  0  0  0
   23.1535    6.7696   16.0025 C   0  0  0  0  0  0  0  0  0  0  0  0
  1  2  2  0
  2  3  1  0
  2  5  1  0
  3  4  1  0
  5  6  1  0
  5 13  1  0
  6  7  1  0
  7  8  1  0
  7 12  2  0
  8  9  1  0
  9 10  2  0
 10 11  1  0
 10 12  1  0
 13 14  1  0
 13 17  2  0
 14 15  1  0
 15 16  2  0
 16 17  1  0
 16 18  1  0
 18 19  2  0
 18 23  1  0
 19 20  1  0
 20 21  2  0
 21 22  1  0
 22 23  2  0
M  END
$$$$
