
     RDKit          3D

 23 25  0  0  0  0  0  0  0  0999 V2000
   26.5191    4.2566   10.4930 O   0  0  0  0  0  0  0  0  0  0  0  0
   26.0756    4.9285   11.4682 C   0  0  0  0  0  0  0  0  0  0  0  0
   26.8495    4.9444   12.7298 C   0  0  0  0  0  0  0  0  0  0  0  0
   28.2279    4.3364   12.4830 C   0  0  0  0  0  0  0  0  0  0  0  0
   24.8583    5.6302   11.3001 N   0  0  0  0  0  0  0  0  0  0  0  0
   24.2119    5.8051   10.0180 C   0  0  0  0  0  0  0  0  0  0  0  0
   24.5520    7.0706    9.3425 C   0  0  0  0  0  0  0  0  0  0  0  0
   25.7542    7.3438    8.8716 O   0  0  0  0  0  0  0  0  0  0  0  0
   25.7893    8.5084    8.3290 N   0  0  0  0  0  0  0  0  0  0  0  0
   24.5659    9.0607    8.4284 C   0  0  0  0  0  0  0  0  0  0  0  0
   24.1167   10.3793    7.9547 C   0  0  0  0  0  0  0  0  0  0  0  0
   23.7445    8.1502    9.0809 C   0  0  0  0  0  0  0  0  0  0  0  0
   24.2175    6.2043   12.4697 C   0  0  0  0  0  0  0  0  0  0  0  0
   23.1302    7.5122   12.5527 S   0  0  0  0  0  0  0  0  0  0  0  0
   22.8798    7.5199   14.2414 C   0  0  0  0  0  0  0  0  0  0  0  0
   23.6769    6.4783   14.6509 C   0  0  0  0  0  0  0  0  0  0  0  0
   24.3373    5.8378   13.7252 N   0  0  0  0  0  0  0  0  0  0  0  0
   23.7887    6.0887   16.0863 C   0  0  0  0  0  0  0  0  0  0  0  0
   24.4627    4.9511   16.4557 C   0  0  0  0  0  0  0  0  0  0  0  0
   24.5783    4.5702   17.7908 C   0  0  0  0  0  0  0  0  0  0  0  0
   24.0108    5.3383   18.7784 C   0  0  0  0  0  0  0  0  0  0  0  0
   23.3308    6.4830   18.4260 C   0  0  0  0  0  0  0  0  0  0  0  0
   23.2305    6.8384   17.0978 C   0  0  0  0  0  0  0  0  0  0  0  0
  1  2  2  0
  2  3  1  0
  2  5  1  0
  3  4  1  0
  5  6  1  0
  5 13  1  0
  6  7  1  0
  7  8  1  0
  7 12  2  0
  8  9  1  0
  9 10  2  0
 10 11  1  0
 10 12  1  0
 13 14  1  0
 13 17  2  0
 14 15  1  0
 15 16  2  0
 16 17  1  0
 16 18  1  0
 18 19  2  0
 18 23  1  0
 19 20  1  0
 20 21  2  0
 21 22  1  0
 22 23  2  0
M  END
$$$$
