
     RDKit          3D

 23 25  0  0  0  0  0  0  0  0999 V2000
   23.4895    6.5939    8.8609 O   0  0  0  0  0  0  0  0  0  0  0  0
   23.6227    6.9126   10.0774 C   0  0  0  0  0  0  0  0  0  0  0  0
   23.1419    8.2407   10.5201 C   0  0  0  0  0  0  0  0  0  0  0  0
   22.4226    8.9278    9.3621 C   0  0  0  0  0  0  0  0  0  0  0  0
   24.2274    5.9793   10.9523 N   0  0  0  0  0  0  0  0  0  0  0  0
   24.4821    4.6016   10.5926 C   0  0  0  0  0  0  0  0  0  0  0  0
   25.8970    4.3102   10.2987 C   0  0  0  0  0  0  0  0  0  0  0  0
   26.6275    3.4660   11.0025 O   0  0  0  0  0  0  0  0  0  0  0  0
   27.8252    3.3893   10.5425 N   0  0  0  0  0  0  0  0  0  0  0  0
   27.9263    4.2109    9.4812 C   0  0  0  0  0  0  0  0  0  0  0  0
   29.0983    4.4624    8.6280 C   0  0  0  0  0  0  0  0  0  0  0  0
   26.6910    4.8201    9.3010 C   0  0  0  0  0  0  0  0  0  0  0  0
   24.6181    6.4198   12.2796 C   0  0  0  0  0  0  0  0  0  0  0  0
   25.6347    7.7149   12.7145 S   0  0  0  0  0  0  0  0  0  0  0  0
   25.5578    7.5322   14.4101 C   0  0  0  0  0  0  0  0  0  0  0  0
   24.7248    6.4472   14.5407 C   0  0  0  0  0  0  0  0  0  0  0  0
   24.2704    5.9128   13.4403 N   0  0  0  0  0  0  0  0  0  0  0  0
   24.3501    5.8978   15.8758 C   0  0  0  0  0  0  0  0  0  0  0  0
   23.4376    4.8780   15.9855 C   0  0  0  0  0  0  0  0  0  0  0  0
   23.0745    4.3512   17.2232 C   0  0  0  0  0  0  0  0  0  0  0  0
   23.6319    4.8506   18.3753 C   0  0  0  0  0  0  0  0  0  0  0  0
   24.5492    5.8739   18.2839 C   0  0  0  0  0  0  0  0  0  0  0  0
   24.8918    6.3780   17.0475 C   0  0  0  0  0  0  0  0  0  0  0  0
  1  2  2  0
  2  3  1  0
  2  5  1  0
  3  4  1  0
  5  6  1  0
  5 13  1  0
  6  7  1  0
  7  8  1  0
  7 12  2  0
  8  9  1  0
  9 10  2  0
 10 11  1  0
 10 12  1  0
 13 14  1  0
 13 17  2  0
 14 15  1  0
 15 16  2  0
 16 17  1  0
 16 18  1  0
 18 19  2  0
 18 23  1  0
 19 20  1  0
 20 21  2  0
 21 22  1  0
 22 23  2  0
M  END
$$$$
