
     RDKit          3D

 23 25  0  0  0  0  0  0  0  0999 V2000
   27.3888    4.2966    9.8439 O   0  0  0  0  0  0  0  0  0  0  0  0
   26.6504    4.6735   10.7989 C   0  0  0  0  0  0  0  0  0  0  0  0
   27.1207    4.4617   12.1862 C   0  0  0  0  0  0  0  0  0  0  0  0
   28.5231    3.8592   12.1564 C   0  0  0  0  0  0  0  0  0  0  0  0
   25.4095    5.2784   10.4881 N   0  0  0  0  0  0  0  0  0  0  0  0
   24.8700    5.3430    9.1475 C   0  0  0  0  0  0  0  0  0  0  0  0
   25.3757    6.4760    8.3515 C   0  0  0  0  0  0  0  0  0  0  0  0
   26.4984    6.4351    7.6590 O   0  0  0  0  0  0  0  0  0  0  0  0
   26.7142    7.5481    7.0535 N   0  0  0  0  0  0  0  0  0  0  0  0
   25.7029    8.3897    7.3379 C   0  0  0  0  0  0  0  0  0  0  0  0
   25.5082    9.7735    6.8778 C   0  0  0  0  0  0  0  0  0  0  0  0
   24.8214    7.7203    8.1771 C   0  0  0  0  0  0  0  0  0  0  0  0
   24.6304    5.8637   11.5645 C   0  0  0  0  0  0  0  0  0  0  0  0
   23.3528    6.9852   11.4651 S   0  0  0  0  0  0  0  0  0  0  0  0
   23.0197    7.1304   13.1332 C   0  0  0  0  0  0  0  0  0  0  0  0
   23.9453    6.2762   13.6824 C   0  0  0  0  0  0  0  0  0  0  0  0
   24.7416    5.6544   12.8563 N   0  0  0  0  0  0  0  0  0  0  0  0
   24.0433    6.0618   15.1552 C   0  0  0  0  0  0  0  0  0  0  0  0
   23.2866    6.8061   16.0259 C   0  0  0  0  0  0  0  0  0  0  0  0
   23.3637    6.6209   17.4047 C   0  0  0  0  0  0  0  0  0  0  0  0
   24.2120    5.6747   17.9268 C   0  0  0  0  0  0  0  0  0  0  0  0
   24.9787    4.9189   17.0678 C   0  0  0  0  0  0  0  0  0  0  0  0
   24.8842    5.1212   15.7075 C   0  0  0  0  0  0  0  0  0  0  0  0
  1  2  2  0
  2  3  1  0
  2  5  1  0
  3  4  1  0
  5  6  1  0
  5 13  1  0
  6  7  1  0
  7  8  1  0
  7 12  2  0
  8  9  1  0
  9 10  2  0
 10 11  1  0
 10 12  1  0
 13 14  1  0
 13 17  2  0
 14 15  1  0
 15 16  2  0
 16 17  1  0
 16 18  1  0
 18 19  2  0
 18 23  1  0
 19 20  1  0
 20 21  2  0
 21 22  1  0
 22 23  2  0
M  END
$$$$
