
     RDKit          3D

 23 25  0  0  0  0  0  0  0  0999 V2000
   27.4234    3.7151    8.0053 O   0  0  0  0  0  0  0  0  0  0  0  0
   27.3824    4.0734    9.2174 C   0  0  0  0  0  0  0  0  0  0  0  0
   28.1841    3.3201   10.2077 C   0  0  0  0  0  0  0  0  0  0  0  0
   28.9717    2.2261    9.4911 C   0  0  0  0  0  0  0  0  0  0  0  0
   26.5686    5.1783    9.5625 N   0  0  0  0  0  0  0  0  0  0  0  0
   25.7164    5.8645    8.6163 C   0  0  0  0  0  0  0  0  0  0  0  0
   24.2855    5.5361    8.7500 C   0  0  0  0  0  0  0  0  0  0  0  0
   23.8161    4.3030    8.7211 O   0  0  0  0  0  0  0  0  0  0  0  0
   22.5385    4.2865    8.8593 N   0  0  0  0  0  0  0  0  0  0  0  0
   22.1085    5.5554    8.9886 C   0  0  0  0  0  0  0  0  0  0  0  0
   20.7313    6.0402    9.1701 C   0  0  0  0  0  0  0  0  0  0  0  0
   23.2202    6.3856    8.9214 C   0  0  0  0  0  0  0  0  0  0  0  0
   26.5814    5.6517   10.9351 C   0  0  0  0  0  0  0  0  0  0  0  0
   27.8937    6.2450   11.8437 S   0  0  0  0  0  0  0  0  0  0  0  0
   27.0625    6.5660   13.2998 C   0  0  0  0  0  0  0  0  0  0  0  0
   25.7809    6.1830   12.9849 C   0  0  0  0  0  0  0  0  0  0  0  0
   25.5781    5.7260   11.7795 N   0  0  0  0  0  0  0  0  0  0  0  0
   24.6647    6.2819   13.9692 C   0  0  0  0  0  0  0  0  0  0  0  0
   24.9203    6.3952   15.3133 C   0  0  0  0  0  0  0  0  0  0  0  0
   23.8917    6.4888   16.2483 C   0  0  0  0  0  0  0  0  0  0  0  0
   22.5814    6.4692   15.8360 C   0  0  0  0  0  0  0  0  0  0  0  0
   22.3064    6.3561   14.4911 C   0  0  0  0  0  0  0  0  0  0  0  0
   23.3420    6.2650   13.5858 C   0  0  0  0  0  0  0  0  0  0  0  0
  1  2  2  0
  2  3  1  0
  2  5  1  0
  3  4  1  0
  5  6  1  0
  5 13  1  0
  6  7  1  0
  7  8  1  0
  7 12  2  0
  8  9  1  0
  9 10  2  0
 10 11  1  0
 10 12  1  0
 13 14  1  0
 13 17  2  0
 14 15  1  0
 15 16  2  0
 16 17  1  0
 16 18  1  0
 18 19  2  0
 18 23  1  0
 19 20  1  0
 20 21  2  0
 21 22  1  0
 22 23  2  0
M  END
$$$$
