
     RDKit          3D

 23 25  0  0  0  0  0  0  0  0999 V2000
   24.9502    7.7978    9.8947 O   0  0  0  0  0  0  0  0  0  0  0  0
   26.0572    7.2482   10.1621 C   0  0  0  0  0  0  0  0  0  0  0  0
   27.2267    7.5553    9.3084 C   0  0  0  0  0  0  0  0  0  0  0  0
   26.8104    8.5400    8.2186 C   0  0  0  0  0  0  0  0  0  0  0  0
   26.1177    6.3652   11.2662 N   0  0  0  0  0  0  0  0  0  0  0  0
   27.2073    5.4392   11.4850 C   0  0  0  0  0  0  0  0  0  0  0  0
   27.0764    4.1728   10.7419 C   0  0  0  0  0  0  0  0  0  0  0  0
   25.9372    3.5192   10.6128 O   0  0  0  0  0  0  0  0  0  0  0  0
   26.0899    2.4473    9.9203 N   0  0  0  0  0  0  0  0  0  0  0  0
   27.3828    2.3567    9.5569 C   0  0  0  0  0  0  0  0  0  0  0  0
   28.0369    1.3077    8.7590 C   0  0  0  0  0  0  0  0  0  0  0  0
   28.0446    3.4621   10.0760 C   0  0  0  0  0  0  0  0  0  0  0  0
   25.0365    6.3856   12.2351 C   0  0  0  0  0  0  0  0  0  0  0  0
   23.3702    6.6104   11.9653 S   0  0  0  0  0  0  0  0  0  0  0  0
   22.8390    6.4949   13.5836 C   0  0  0  0  0  0  0  0  0  0  0  0
   24.0191    6.2828   14.2548 C   0  0  0  0  0  0  0  0  0  0  0  0
   25.1084    6.2340   13.5377 N   0  0  0  0  0  0  0  0  0  0  0  0
   24.0638    6.1141   15.7361 C   0  0  0  0  0  0  0  0  0  0  0  0
   25.2393    5.8030   16.3732 C   0  0  0  0  0  0  0  0  0  0  0  0
   25.3017    5.6413   17.7556 C   0  0  0  0  0  0  0  0  0  0  0  0
   24.1696    5.7926   18.5191 C   0  0  0  0  0  0  0  0  0  0  0  0
   22.9813    6.1046   17.8965 C   0  0  0  0  0  0  0  0  0  0  0  0
   22.9458    6.2595   16.5272 C   0  0  0  0  0  0  0  0  0  0  0  0
  1  2  2  0
  2  3  1  0
  2  5  1  0
  3  4  1  0
  5  6  1  0
  5 13  1  0
  6  7  1  0
  7  8  1  0
  7 12  2  0
  8  9  1  0
  9 10  2  0
 10 11  1  0
 10 12  1  0
 13 14  1  0
 13 17  2  0
 14 15  1  0
 15 16  2  0
 16 17  1  0
 16 18  1  0
 18 19  2  0
 18 23  1  0
 19 20  1  0
 20 21  2  0
 21 22  1  0
 22 23  2  0
M  END
$$$$
