
     RDKit          3D

 16 18  0  0  0  0  0  0  0  0999 V2000
   -2.5946  -16.8705   30.9622 C   0  0  0  0  0  0  0  0  0  0  0  0
   -2.6381  -18.5536   29.1081 C   0  0  0  0  0  0  0  0  0  0  0  0
   -4.6766  -15.6057   29.1972 C   0  0  0  0  0  0  0  0  0  0  0  0
   -5.6122  -17.7520   29.6853 C   0  0  0  0  0  0  0  0  0  0  0  0
   -2.4230  -16.2921   27.2807 C   0  0  0  0  0  0  0  0  0  0  0  0
   -6.8592  -17.1976   29.5789 C   0  0  0  0  0  0  0  0  0  0  0  0
   -1.6478  -14.5657   31.2757 C   0  0  0  0  0  0  0  0  0  0  0  0
   -3.0538  -17.1862   29.5353 C   0  0  1  0  0  0  0  0  0  0  0  0
   -1.4255  -15.9640   30.7679 C   0  0  1  0  0  0  0  0  0  0  0  0
   -5.9644  -15.0620   29.0937 C   0  0  0  0  0  0  0  0  0  0  0  0
   -0.2468  -16.5599   31.5282 C   0  0  0  0  0  0  0  0  0  0  0  0
   -7.0728  -15.8639   29.2861 C   0  0  0  0  0  0  0  0  0  0  0  0
   -4.4895  -16.9397   29.4906 C   0  0  0  0  0  0  0  0  0  0  0  0
   -2.4527  -16.0718   28.7678 C   0  0  2  0  0  0  0  0  0  0  0  0
   -3.3925  -15.0097   29.0389 N   0  0  0  0  0  0  0  0  0  0  0  0
   -1.1680  -15.8860   29.3496 N   0  0  0  0  0  4  0  0  0  0  0  0
  8  1  1  0
  1  9  1  0
  8  2  1  6
  3 10  2  0
 13  3  1  0
  3 15  1  0
  4  6  1  0
 13  4  2  0
 14  5  1  6
  6 12  2  0
  9  7  1  1
  8 13  1  0
  8 14  1  0
  9 11  1  0
  9 16  1  0
 10 12  1  0
 14 15  1  0
 14 16  1  0
M  CHG  1  16   1
M  END
$$$$
