
     RDKit          3D

 16 18  0  0  0  0  0  0  0  0999 V2000
   -3.9696  -18.2845   27.6252 C   0  0  0  0  0  0  0  0  0  0  0  0
   -2.4890  -16.5333   26.6185 C   0  0  0  0  0  0  0  0  0  0  0  0
   -6.0541  -16.6098   26.2467 C   0  0  0  0  0  0  0  0  0  0  0  0
   -4.6248  -17.2816   24.4506 C   0  0  0  0  0  0  0  0  0  0  0  0
   -4.3472  -14.5743   27.7183 C   0  0  0  0  0  0  0  0  0  0  0  0
   -5.7073  -17.2363   23.6141 C   0  0  0  0  0  0  0  0  0  0  0  0
   -5.5432  -18.4017   29.5789 C   0  0  0  0  0  0  0  0  0  0  0  0
   -3.8939  -16.9144   26.9445 C   0  0  1  0  0  0  0  0  0  0  0  0
   -4.2027  -17.9561   29.0619 C   0  0  1  0  0  0  0  0  0  0  0  0
   -7.1468  -16.5712   25.3697 C   0  0  0  0  0  0  0  0  0  0  0  0
   -3.1251  -18.6597   29.8780 C   0  0  0  0  0  0  0  0  0  0  0  0
   -6.9764  -16.8875   24.0357 C   0  0  0  0  0  0  0  0  0  0  0  0
   -4.7974  -16.9613   25.8019 C   0  0  0  0  0  0  0  0  0  0  0  0
   -4.5742  -16.0453   27.9315 C   0  0  2  0  0  0  0  0  0  0  0  0
   -5.9601  -16.3258   27.6394 N   0  0  0  0  0  0  0  0  0  0  0  0
   -4.1294  -16.5207   29.1963 N   0  0  0  0  0  4  0  0  0  0  0  0
  8  1  1  0
  1  9  1  0
  8  2  1  6
  3 10  2  0
 13  3  1  0
  3 15  1  0
  4  6  1  0
 13  4  2  0
 14  5  1  6
  6 12  2  0
  9  7  1  1
  8 13  1  0
  8 14  1  0
  9 11  1  0
  9 16  1  0
 10 12  1  0
 14 15  1  0
 14 16  1  0
M  CHG  1  16   1
M  END
$$$$
