
     RDKit          3D

 16 18  0  0  0  0  0  0  0  0999 V2000
   -2.9396  -17.8301   29.5744 C   0  0  0  0  0  0  0  0  0  0  0  0
   -2.3587  -16.4626   27.5582 C   0  0  0  0  0  0  0  0  0  0  0  0
   -3.5843  -15.0898   30.6351 C   0  0  0  0  0  0  0  0  0  0  0  0
   -5.0157  -15.2830   28.7287 C   0  0  0  0  0  0  0  0  0  0  0  0
   -0.8455  -14.7496   29.3682 C   0  0  0  0  0  0  0  0  0  0  0  0
   -5.9151  -14.4673   29.3608 C   0  0  0  0  0  0  0  0  0  0  0  0
   -1.8708  -18.2970   31.7985 C   0  0  0  0  0  0  0  0  0  0  0  0
   -2.6721  -16.4289   29.0163 C   0  0  1  0  0  0  0  0  0  0  0  0
   -1.6863  -18.1652   30.3115 C   0  0  1  0  0  0  0  0  0  0  0  0
   -4.5217  -14.2567   31.2611 C   0  0  0  0  0  0  0  0  0  0  0  0
   -1.1795  -19.5002   29.7792 C   0  0  0  0  0  0  0  0  0  0  0  0
   -5.7035  -13.9385   30.6200 C   0  0  0  0  0  0  0  0  0  0  0  0
   -3.8188  -15.6054   29.3782 C   0  0  0  0  0  0  0  0  0  0  0  0
   -1.5742  -15.9568   29.8903 C   0  0  2  0  0  0  0  0  0  0  0  0
   -2.3091  -15.5553   31.0665 N   0  0  0  0  0  0  0  0  0  0  0  0
   -0.7443  -17.0975   30.0735 N   0  0  0  0  0  4  0  0  0  0  0  0
  8  1  1  0
  1  9  1  0
  8  2  1  6
  3 10  2  0
 13  3  1  0
  3 15  1  0
  4  6  1  0
 13  4  2  0
 14  5  1  6
  6 12  2  0
  9  7  1  1
  8 13  1  0
  8 14  1  0
  9 11  1  0
  9 16  1  0
 10 12  1  0
 14 15  1  0
 14 16  1  0
M  CHG  1  16   1
M  END
$$$$
