
     RDKit          3D

 16 18  0  0  0  0  0  0  0  0999 V2000
   -3.8355  -18.8355   29.5582 C   0  0  0  0  0  0  0  0  0  0  0  0
   -4.4772  -19.3066   27.1836 C   0  0  0  0  0  0  0  0  0  0  0  0
   -4.3101  -16.0209   28.6083 C   0  0  0  0  0  0  0  0  0  0  0  0
   -6.4201  -17.0823   28.2319 C   0  0  0  0  0  0  0  0  0  0  0  0
   -2.5681  -17.2336   26.4365 C   0  0  0  0  0  0  0  0  0  0  0  0
   -7.0296  -15.8751   28.4441 C   0  0  0  0  0  0  0  0  0  0  0  0
   -1.7940  -17.9576   30.7281 C   0  0  0  0  0  0  0  0  0  0  0  0
   -4.0729  -18.2545   28.1609 C   0  0  1  0  0  0  0  0  0  0  0  0
   -2.3488  -18.8801   29.6775 C   0  0  1  0  0  0  0  0  0  0  0  0
   -4.9582  -14.7964   28.8216 C   0  0  0  0  0  0  0  0  0  0  0  0
   -1.9570  -20.3056   30.0473 C   0  0  0  0  0  0  0  0  0  0  0  0
   -6.3350  -14.7174   28.7395 C   0  0  0  0  0  0  0  0  0  0  0  0
   -5.0255  -17.1623   28.3152 C   0  0  0  0  0  0  0  0  0  0  0  0
   -2.7781  -17.5930   27.8814 C   0  0  2  0  0  0  0  0  0  0  0  0
   -2.9279  -16.3647   28.6253 N   0  0  0  0  0  0  0  0  0  0  0  0
   -1.7991  -18.4836   28.4029 N   0  0  0  0  0  4  0  0  0  0  0  0
  8  1  1  0
  1  9  1  0
  8  2  1  6
  3 10  2  0
 13  3  1  0
  3 15  1  0
  4  6  1  0
 13  4  2  0
 14  5  1  6
  6 12  2  0
  9  7  1  1
  8 13  1  0
  8 14  1  0
  9 11  1  0
  9 16  1  0
 10 12  1  0
 14 15  1  0
 14 16  1  0
M  CHG  1  16   1
M  END
$$$$
