
     RDKit          3D

 16 18  0  0  0  0  0  0  0  0999 V2000
   -4.4058  -18.8217   27.0757 C   0  0  0  0  0  0  0  0  0  0  0  0
   -2.7811  -17.3311   25.8878 C   0  0  0  0  0  0  0  0  0  0  0  0
   -5.5778  -16.1454   27.7921 C   0  0  0  0  0  0  0  0  0  0  0  0
   -5.6389  -16.1406   25.4012 C   0  0  0  0  0  0  0  0  0  0  0  0
   -2.6153  -15.8174   28.3740 C   0  0  0  0  0  0  0  0  0  0  0  0
   -6.7477  -15.3403   25.4626 C   0  0  0  0  0  0  0  0  0  0  0  0
   -4.8164  -19.4939   29.4604 C   0  0  0  0  0  0  0  0  0  0  0  0
   -3.8811  -17.3942   26.8935 C   0  0  1  0  0  0  0  0  0  0  0  0
   -3.8067  -19.2589   28.3705 C   0  0  1  0  0  0  0  0  0  0  0  0
   -6.7143  -15.3257   27.8281 C   0  0  0  0  0  0  0  0  0  0  0  0
   -3.0697  -20.5690   28.1202 C   0  0  0  0  0  0  0  0  0  0  0  0
   -7.3104  -14.9153   26.6512 C   0  0  0  0  0  0  0  0  0  0  0  0
   -5.0353  -16.5564   26.5933 C   0  0  0  0  0  0  0  0  0  0  0  0
   -3.4975  -17.0312   28.2767 C   0  0  2  0  0  0  0  0  0  0  0  0
   -4.7823  -16.6904   28.8405 N   0  0  0  0  0  0  0  0  0  0  0  0
   -2.9135  -18.2135   28.8102 N   0  0  0  0  0  4  0  0  0  0  0  0
  8  1  1  0
  1  9  1  0
  8  2  1  6
  3 10  2  0
 13  3  1  0
  3 15  1  0
  4  6  1  0
 13  4  2  0
 14  5  1  6
  6 12  2  0
  9  7  1  1
  8 13  1  0
  8 14  1  0
  9 11  1  0
  9 16  1  0
 10 12  1  0
 14 15  1  0
 14 16  1  0
M  CHG  1  16   1
M  END
$$$$
