
     RDKit          3D

 16 18  0  0  0  0  0  0  0  0999 V2000
   -1.3244  -14.8527   31.3611 C   0  0  0  0  0  0  0  0  0  0  0  0
    0.3544  -16.6053   31.9796 C   0  0  0  0  0  0  0  0  0  0  0  0
   -3.1958  -17.0940   32.0849 C   0  0  0  0  0  0  0  0  0  0  0  0
   -1.9497  -16.7577   34.0984 C   0  0  0  0  0  0  0  0  0  0  0  0
   -1.1561  -18.4140   30.2629 C   0  0  0  0  0  0  0  0  0  0  0  0
   -3.0457  -17.1684   34.8081 C   0  0  0  0  0  0  0  0  0  0  0  0
   -2.8214  -14.4125   29.3933 C   0  0  0  0  0  0  0  0  0  0  0  0
   -1.0773  -16.3346   31.6595 C   0  0  1  0  0  0  0  0  0  0  0  0
   -1.4516  -14.8049   29.8752 C   0  0  1  0  0  0  0  0  0  0  0  0
   -4.3045  -17.5108   32.8344 C   0  0  0  0  0  0  0  0  0  0  0  0
   -0.4566  -13.7727   29.3587 C   0  0  0  0  0  0  0  0  0  0  0  0
   -4.2336  -17.5502   34.2136 C   0  0  0  0  0  0  0  0  0  0  0  0
   -2.0216  -16.7176   32.7015 C   0  0  0  0  0  0  0  0  0  0  0  0
   -1.5856  -16.9826   30.4291 C   0  0  2  0  0  0  0  0  0  0  0  0
   -3.0077  -16.9736   30.6781 N   0  0  0  0  0  0  0  0  0  0  0  0
   -1.1658  -16.1276   29.3725 N   0  0  0  0  0  4  0  0  0  0  0  0
  8  1  1  0
  1  9  1  0
  8  2  1  1
  3 10  2  0
 13  3  1  0
  3 15  1  0
  4  6  1  0
 13  4  2  0
 14  5  1  6
  6 12  2  0
  9  7  1  1
  8 13  1  0
  8 14  1  0
  9 11  1  0
  9 16  1  0
 10 12  1  0
 14 15  1  0
 14 16  1  0
M  CHG  1  16   1
M  END
$$$$
