
     RDKit          3D

 16 18  0  0  0  0  0  0  0  0999 V2000
   -1.0897  -15.4875   32.2130 C   0  0  0  0  0  0  0  0  0  0  0  0
    0.5063  -17.4123   32.3554 C   0  0  0  0  0  0  0  0  0  0  0  0
   -3.0593  -17.7377   32.5400 C   0  0  0  0  0  0  0  0  0  0  0  0
   -1.7147  -17.9046   34.5108 C   0  0  0  0  0  0  0  0  0  0  0  0
   -1.1769  -18.7324   30.3745 C   0  0  0  0  0  0  0  0  0  0  0  0
   -2.8034  -18.4043   35.1732 C   0  0  0  0  0  0  0  0  0  0  0  0
   -2.6368  -14.5608   30.4652 C   0  0  0  0  0  0  0  0  0  0  0  0
   -0.9186  -17.0093   32.1757 C   0  0  1  0  0  0  0  0  0  0  0  0
   -1.2741  -15.1145   30.7801 C   0  0  1  0  0  0  0  0  0  0  0  0
   -4.1594  -18.2512   33.2406 C   0  0  0  0  0  0  0  0  0  0  0  0
   -0.2416  -14.0453   30.4438 C   0  0  0  0  0  0  0  0  0  0  0  0
   -4.0349  -18.5903   34.5741 C   0  0  0  0  0  0  0  0  0  0  0  0
   -1.8408  -17.5610   33.1602 C   0  0  0  0  0  0  0  0  0  0  0  0
   -1.5139  -17.3511   30.8638 C   0  0  2  0  0  0  0  0  0  0  0  0
   -2.9218  -17.3264   31.1831 N   0  0  0  0  0  0  0  0  0  0  0  0
   -1.0876  -16.3102   29.9930 N   0  0  0  0  0  4  0  0  0  0  0  0
  8  1  1  0
  1  9  1  0
  8  2  1  6
  3 10  2  0
 13  3  1  0
  3 15  1  0
  4  6  1  0
 13  4  2  0
 14  5  1  6
  6 12  2  0
  9  7  1  1
  8 13  1  0
  8 14  1  0
  9 11  1  0
  9 16  1  0
 10 12  1  0
 14 15  1  0
 14 16  1  0
M  CHG  1  16   1
M  END
$$$$
