
     RDKit          3D

 16 18  0  0  0  0  0  0  0  0999 V2000
   -1.6217  -15.9175   32.4602 C   0  0  0  0  0  0  0  0  0  0  0  0
    0.7764  -16.1961   31.7941 C   0  0  0  0  0  0  0  0  0  0  0  0
   -0.7627  -17.9176   34.5365 C   0  0  0  0  0  0  0  0  0  0  0  0
    0.7056  -16.0700   34.9246 C   0  0  0  0  0  0  0  0  0  0  0  0
    0.3040  -19.0695   31.9370 C   0  0  0  0  0  0  0  0  0  0  0  0
    0.7478  -16.4219   36.2468 C   0  0  0  0  0  0  0  0  0  0  0  0
   -3.7239  -17.2695   32.2156 C   0  0  0  0  0  0  0  0  0  0  0  0
   -0.3419  -16.7448   32.6147 C   0  0  1  0  0  0  0  0  0  0  0  0
   -2.4753  -16.7464   31.5599 C   0  0  1  0  0  0  0  0  0  0  0  0
   -0.7031  -18.2572   35.8952 C   0  0  0  0  0  0  0  0  0  0  0  0
   -2.8916  -15.8722   30.3831 C   0  0  0  0  0  0  0  0  0  0  0  0
    0.0603  -17.5029   36.7653 C   0  0  0  0  0  0  0  0  0  0  0  0
   -0.0679  -16.8338   34.0434 C   0  0  0  0  0  0  0  0  0  0  0  0
   -0.8052  -18.0979   32.2316 C   0  0  2  0  0  0  0  0  0  0  0  0
   -1.4545  -18.5238   33.4488 N   0  0  0  0  0  0  0  0  0  0  0  0
   -1.6873  -17.8797   31.1371 N   0  0  0  0  0  4  0  0  0  0  0  0
  8  1  1  0
  1  9  1  0
  8  2  1  6
  3 10  2  0
 13  3  1  0
  3 15  1  0
  4  6  1  0
 13  4  2  0
 14  5  1  6
  6 12  2  0
  9  7  1  1
  8 13  1  0
  8 14  1  0
  9 11  1  0
  9 16  1  0
 10 12  1  0
 14 15  1  0
 14 16  1  0
M  CHG  1  16   1
M  END
$$$$
