
     RDKit          3D

 16 18  0  0  0  0  0  0  0  0999 V2000
   -5.2444  -17.8239   29.1805 C   0  0  0  0  0  0  0  0  0  0  0  0
   -4.8998  -20.0264   28.0394 C   0  0  0  0  0  0  0  0  0  0  0  0
   -4.0436  -16.8578   26.5970 C   0  0  0  0  0  0  0  0  0  0  0  0
   -5.9954  -18.0385   25.8785 C   0  0  0  0  0  0  0  0  0  0  0  0
   -2.1946  -19.1078   27.4580 C   0  0  0  0  0  0  0  0  0  0  0  0
   -6.0778  -17.1880   24.8092 C   0  0  0  0  0  0  0  0  0  0  0  0
   -3.7736  -16.1500   30.3389 C   0  0  0  0  0  0  0  0  0  0  0  0
   -4.5766  -18.5702   28.0215 C   0  0  1  0  0  0  0  0  0  0  0  0
   -4.1310  -17.5986   30.1479 C   0  0  1  0  0  0  0  0  0  0  0  0
   -4.1500  -15.9998   25.4937 C   0  0  0  0  0  0  0  0  0  0  0  0
   -4.5694  -18.1577   31.4961 C   0  0  0  0  0  0  0  0  0  0  0  0
   -5.1783  -16.1629   24.5855 C   0  0  0  0  0  0  0  0  0  0  0  0
   -4.9540  -17.8732   26.7985 C   0  0  0  0  0  0  0  0  0  0  0  0
   -3.1489  -18.2349   28.2250 C   0  0  2  0  0  0  0  0  0  0  0  0
   -3.0913  -16.9095   27.6552 N   0  0  0  0  0  0  0  0  0  0  0  0
   -2.9661  -18.2798   29.6350 N   0  0  0  0  0  4  0  0  0  0  0  0
  8  1  1  0
  1  9  1  0
  8  2  1  6
  3 10  2  0
 13  3  1  0
  3 15  1  0
  4  6  1  0
 13  4  2  0
 14  5  1  6
  6 12  2  0
  9  7  1  1
  8 13  1  0
  8 14  1  0
  9 11  1  0
  9 16  1  0
 10 12  1  0
 14 15  1  0
 14 16  1  0
M  CHG  1  16   1
M  END
$$$$
