
     RDKit          3D

 16 18  0  0  0  0  0  0  0  0999 V2000
   -0.9824  -15.4315   34.2810 C   0  0  0  0  0  0  0  0  0  0  0  0
    1.1916  -16.0053   33.1779 C   0  0  0  0  0  0  0  0  0  0  0  0
   -0.2243  -17.8436   35.9109 C   0  0  0  0  0  0  0  0  0  0  0  0
    1.6123  -16.3528   36.2639 C   0  0  0  0  0  0  0  0  0  0  0  0
    0.2032  -18.7447   33.0426 C   0  0  0  0  0  0  0  0  0  0  0  0
    1.7822  -16.9062   37.5043 C   0  0  0  0  0  0  0  0  0  0  0  0
   -3.3175  -16.3548   34.2402 C   0  0  0  0  0  0  0  0  0  0  0  0
    0.1233  -16.4770   34.1062 C   0  0  1  0  0  0  0  0  0  0  0  0
   -2.1033  -15.9556   33.4472 C   0  0  1  0  0  0  0  0  0  0  0  0
   -0.0298  -18.3935   37.1855 C   0  0  0  0  0  0  0  0  0  0  0  0
   -2.5143  -14.8529   32.4789 C   0  0  0  0  0  0  0  0  0  0  0  0
    0.9849  -17.9223   37.9962 C   0  0  0  0  0  0  0  0  0  0  0  0
    0.5844  -16.8300   35.4429 C   0  0  0  0  0  0  0  0  0  0  0  0
   -0.6426  -17.6569   33.6444 C   0  0  2  0  0  0  0  0  0  0  0  0
   -1.1733  -18.1493   34.8936 N   0  0  0  0  0  0  0  0  0  0  0  0
   -1.6191  -17.1268   32.7561 N   0  0  0  0  0  4  0  0  0  0  0  0
  8  1  1  0
  1  9  1  0
  8  2  1  6
  3 10  2  0
 13  3  1  0
  3 15  1  0
  4  6  1  0
 13  4  2  0
 14  5  1  6
  6 12  2  0
  9  7  1  1
  8 13  1  0
  8 14  1  0
  9 11  1  0
  9 16  1  0
 10 12  1  0
 14 15  1  0
 14 16  1  0
M  CHG  1  16   1
M  END
$$$$
