
     RDKit          3D

 16 18  0  0  0  0  0  0  0  0999 V2000
   -2.1042  -15.9159   31.3920 C   0  0  0  0  0  0  0  0  0  0  0  0
    0.3340  -16.1269   31.9237 C   0  0  0  0  0  0  0  0  0  0  0  0
   -2.2201  -18.2107   33.3336 C   0  0  0  0  0  0  0  0  0  0  0  0
   -1.2228  -16.4605   34.6230 C   0  0  0  0  0  0  0  0  0  0  0  0
    0.0185  -18.9834   31.4326 C   0  0  0  0  0  0  0  0  0  0  0  0
   -1.7935  -17.0031   35.7427 C   0  0  0  0  0  0  0  0  0  0  0  0
   -3.7551  -17.1882   29.9909 C   0  0  0  0  0  0  0  0  0  0  0  0
   -1.0059  -16.7746   32.0263 C   0  0  1  0  0  0  0  0  0  0  0  0
   -2.3777  -16.5919   30.0902 C   0  0  1  0  0  0  0  0  0  0  0  0
   -2.7935  -18.7467   34.4949 C   0  0  0  0  0  0  0  0  0  0  0  0
   -2.2350  -15.5489   28.9884 C   0  0  0  0  0  0  0  0  0  0  0  0
   -2.5805  -18.1390   35.7172 C   0  0  0  0  0  0  0  0  0  0  0  0
   -1.4388  -17.0760   33.3849 C   0  0  0  0  0  0  0  0  0  0  0  0
   -1.1518  -18.0503   31.2891 C   0  0  2  0  0  0  0  0  0  0  0  0
   -2.2754  -18.6412   31.9769 N   0  0  0  0  0  0  0  0  0  0  0  0
   -1.4191  -17.6617   29.9470 N   0  0  0  0  0  4  0  0  0  0  0  0
  8  1  1  0
  1  9  1  0
  8  2  1  1
  3 10  2  0
 13  3  1  0
  3 15  1  0
  4  6  1  0
 13  4  2  0
 14  5  1  6
  6 12  2  0
  9  7  1  1
  8 13  1  0
  8 14  1  0
  9 11  1  0
  9 16  1  0
 10 12  1  0
 14 15  1  0
 14 16  1  0
M  CHG  1  16   1
M  END
$$$$
