
     RDKit          3D

 16 18  0  0  0  0  0  0  0  0999 V2000
   -2.5679  -16.6789   30.6453 C   0  0  0  0  0  0  0  0  0  0  0  0
   -0.2166  -17.5102   30.8747 C   0  0  0  0  0  0  0  0  0  0  0  0
   -3.1122  -19.3541   31.9089 C   0  0  0  0  0  0  0  0  0  0  0  0
   -1.7169  -18.2684   33.5197 C   0  0  0  0  0  0  0  0  0  0  0  0
   -1.1592  -19.9935   29.6730 C   0  0  0  0  0  0  0  0  0  0  0  0
   -2.3533  -18.9777   34.5023 C   0  0  0  0  0  0  0  0  0  0  0  0
   -4.5013  -17.1545   29.1147 C   0  0  0  0  0  0  0  0  0  0  0  0
   -1.6607  -17.8810   30.9245 C   0  0  1  0  0  0  0  0  0  0  0  0
   -3.0250  -16.8958   29.2416 C   0  0  1  0  0  0  0  0  0  0  0  0
   -3.7485  -20.0682   32.9335 C   0  0  0  0  0  0  0  0  0  0  0  0
   -2.6972  -15.6364   28.4485 C   0  0  0  0  0  0  0  0  0  0  0  0
   -3.3679  -19.8811   34.2484 C   0  0  0  0  0  0  0  0  0  0  0  0
   -2.1025  -18.4578   32.1879 C   0  0  0  0  0  0  0  0  0  0  0  0
   -2.1041  -18.8444   29.8912 C   0  0  2  0  0  0  0  0  0  0  0  0
   -3.3051  -19.3683   30.4976 N   0  0  0  0  0  0  0  0  0  0  0  0
   -2.3260  -18.0512   28.7314 N   0  0  0  0  0  4  0  0  0  0  0  0
  8  1  1  0
  1  9  1  0
  8  2  1  1
  3 10  2  0
 13  3  1  0
  3 15  1  0
  4  6  1  0
 13  4  2  0
 14  5  1  6
  6 12  2  0
  9  7  1  1
  8 13  1  0
  8 14  1  0
  9 11  1  0
  9 16  1  0
 10 12  1  0
 14 15  1  0
 14 16  1  0
M  CHG  1  16   1
M  END
$$$$
