
     RDKit          3D

 16 18  0  0  0  0  0  0  0  0999 V2000
   -1.3742  -15.4690   34.4443 C   0  0  0  0  0  0  0  0  0  0  0  0
    0.8431  -15.4433   33.2802 C   0  0  0  0  0  0  0  0  0  0  0  0
   -0.1092  -17.8707   35.7407 C   0  0  0  0  0  0  0  0  0  0  0  0
    1.3998  -16.0995   36.2936 C   0  0  0  0  0  0  0  0  0  0  0  0
    0.4201  -18.2841   32.7791 C   0  0  0  0  0  0  0  0  0  0  0  0
    1.7072  -16.7647   37.4498 C   0  0  0  0  0  0  0  0  0  0  0  0
   -3.4775  -16.8307   34.2751 C   0  0  0  0  0  0  0  0  0  0  0  0
   -0.0862  -16.2380   34.1347 C   0  0  1  0  0  0  0  0  0  0  0  0
   -2.3875  -16.0946   33.5453 C   0  0  1  0  0  0  0  0  0  0  0  0
    0.2225  -18.5321   36.9313 C   0  0  0  0  0  0  0  0  0  0  0  0
   -3.0343  -14.9805   32.7312 C   0  0  0  0  0  0  0  0  0  0  0  0
    1.1417  -17.9761   37.8001 C   0  0  0  0  0  0  0  0  0  0  0  0
    0.4686  -16.6625   35.4138 C   0  0  0  0  0  0  0  0  0  0  0  0
   -0.6115  -17.4774   33.5181 C   0  0  2  0  0  0  0  0  0  0  0  0
   -1.0023  -18.2258   34.6893 N   0  0  0  0  0  0  0  0  0  0  0  0
   -1.6956  -17.0436   32.7057 N   0  0  0  0  0  4  0  0  0  0  0  0
  8  1  1  0
  1  9  1  0
  8  2  1  6
  3 10  2  0
 13  3  1  0
  3 15  1  0
  4  6  1  0
 13  4  2  0
 14  5  1  6
  6 12  2  0
  9  7  1  1
  8 13  1  0
  8 14  1  0
  9 11  1  0
  9 16  1  0
 10 12  1  0
 14 15  1  0
 14 16  1  0
M  CHG  1  16   1
M  END
$$$$
