
     RDKit          3D

 16 18  0  0  0  0  0  0  0  0999 V2000
   -3.2692  -19.7111   29.8734 C   0  0  0  0  0  0  0  0  0  0  0  0
   -1.8548  -19.0001   27.9327 C   0  0  0  0  0  0  0  0  0  0  0  0
   -4.3312  -16.9235   29.4848 C   0  0  0  0  0  0  0  0  0  0  0  0
   -4.7598  -17.9651   27.3749 C   0  0  0  0  0  0  0  0  0  0  0  0
   -1.3162  -16.5625   29.4386 C   0  0  0  0  0  0  0  0  0  0  0  0
   -5.8502  -17.1504   27.2298 C   0  0  0  0  0  0  0  0  0  0  0  0
   -3.3041  -19.2404   32.3400 C   0  0  0  0  0  0  0  0  0  0  0  0
   -2.7865  -18.5451   29.0052 C   0  0  1  0  0  0  0  0  0  0  0  0
   -2.4756  -19.5726   31.1293 C   0  0  1  0  0  0  0  0  0  0  0  0
   -5.4529  -16.1008   29.3125 C   0  0  0  0  0  0  0  0  0  0  0  0
   -1.7789  -20.9035   31.3855 C   0  0  0  0  0  0  0  0  0  0  0  0
   -6.2254  -16.2119   28.1725 C   0  0  0  0  0  0  0  0  0  0  0  0
   -3.9775  -17.8527   28.5298 C   0  0  0  0  0  0  0  0  0  0  0  0
   -2.1964  -17.6369   30.0147 C   0  0  2  0  0  0  0  0  0  0  0  0
   -3.3808  -17.0023   30.5430 N   0  0  0  0  0  0  0  0  0  0  0  0
   -1.5309  -18.4994   30.9294 N   0  0  0  0  0  4  0  0  0  0  0  0
  8  1  1  0
  1  9  1  0
  8  2  1  6
  3 10  2  0
 13  3  1  0
  3 15  1  0
  4  6  1  0
 13  4  2  0
 14  5  1  6
  6 12  2  0
  9  7  1  1
  8 13  1  0
  8 14  1  0
  9 11  1  0
  9 16  1  0
 10 12  1  0
 14 15  1  0
 14 16  1  0
M  CHG  1  16   1
M  END
$$$$
