
     RDKit          3D

 16 18  0  0  0  0  0  0  0  0999 V2000
   -1.4140  -18.3592   34.0626 C   0  0  0  0  0  0  0  0  0  0  0  0
   -0.9761  -15.9209   33.6947 C   0  0  0  0  0  0  0  0  0  0  0  0
    1.4948  -18.2607   34.8233 C   0  0  0  0  0  0  0  0  0  0  0  0
    0.4838  -16.7218   36.3496 C   0  0  0  0  0  0  0  0  0  0  0  0
    1.3827  -16.7466   32.1933 C   0  0  0  0  0  0  0  0  0  0  0  0
    1.4541  -17.0379   37.2619 C   0  0  0  0  0  0  0  0  0  0  0  0
   -0.8867  -20.4855   32.8347 C   0  0  0  0  0  0  0  0  0  0  0  0
   -0.3574  -17.2591   33.9223 C   0  0  1  0  0  0  0  0  0  0  0  0
   -1.3712  -19.0641   32.7482 C   0  0  1  0  0  0  0  0  0  0  0  0
    2.4772  -18.5674   35.7749 C   0  0  0  0  0  0  0  0  0  0  0  0
   -2.7878  -19.0822   32.1867 C   0  0  0  0  0  0  0  0  0  0  0  0
    2.4610  -17.9509   37.0112 C   0  0  0  0  0  0  0  0  0  0  0  0
    0.5001  -17.3464   35.0975 C   0  0  0  0  0  0  0  0  0  0  0  0
    0.4714  -17.7725   32.8080 C   0  0  2  0  0  0  0  0  0  0  0  0
    1.2941  -18.7388   33.4966 N   0  0  0  0  0  0  0  0  0  0  0  0
   -0.4625  -18.3361   31.8949 N   0  0  0  0  0  4  0  0  0  0  0  0
  8  1  1  0
  1  9  1  0
  8  2  1  6
  3 10  2  0
 13  3  1  0
  3 15  1  0
  4  6  1  0
 13  4  2  0
 14  5  1  6
  6 12  2  0
  9  7  1  1
  8 13  1  0
  8 14  1  0
  9 11  1  0
  9 16  1  0
 10 12  1  0
 14 15  1  0
 14 16  1  0
M  CHG  1  16   1
M  END
$$$$
