
     RDKit          3D

 16 18  0  0  0  0  0  0  0  0999 V2000
   -1.6771  -17.8960   32.1094 C   0  0  0  0  0  0  0  0  0  0  0  0
   -0.4834  -15.7081   32.3553 C   0  0  0  0  0  0  0  0  0  0  0  0
   -3.2215  -16.7494   34.4223 C   0  0  0  0  0  0  0  0  0  0  0  0
   -3.5433  -15.1240   32.6976 C   0  0  0  0  0  0  0  0  0  0  0  0
   -0.3192  -16.3133   35.2026 C   0  0  0  0  0  0  0  0  0  0  0  0
   -4.7634  -14.8313   33.2447 C   0  0  0  0  0  0  0  0  0  0  0  0
   -1.6985  -20.0811   33.3471 C   0  0  0  0  0  0  0  0  0  0  0  0
   -1.4381  -16.6641   32.9878 C   0  0  1  0  0  0  0  0  0  0  0  0
   -0.8720  -18.9653   32.7686 C   0  0  1  0  0  0  0  0  0  0  0  0
   -4.4749  -16.4314   34.9632 C   0  0  0  0  0  0  0  0  0  0  0  0
    0.0547  -19.5620   31.7162 C   0  0  0  0  0  0  0  0  0  0  0  0
   -5.2595  -15.4609   34.3706 C   0  0  0  0  0  0  0  0  0  0  0  0
   -2.7487  -16.1072   33.2978 C   0  0  0  0  0  0  0  0  0  0  0  0
   -0.9764  -17.2772   34.2540 C   0  0  2  0  0  0  0  0  0  0  0  0
   -2.2319  -17.6859   34.8382 N   0  0  0  0  0  0  0  0  0  0  0  0
   -0.1365  -18.3513   33.8485 N   0  0  0  0  0  4  0  0  0  0  0  0
  8  1  1  0
  1  9  1  0
  8  2  1  6
  3 10  2  0
 13  3  1  0
  3 15  1  0
  4  6  1  0
 13  4  2  0
 14  5  1  1
  6 12  2  0
  9  7  1  1
  8 13  1  0
  8 14  1  0
  9 11  1  0
  9 16  1  0
 10 12  1  0
 14 15  1  0
 14 16  1  0
M  CHG  1  16   1
M  END
$$$$
