
     RDKit          3D

 16 18  0  0  0  0  0  0  0  0999 V2000
    0.4008  -15.8297   33.6487 C   0  0  0  0  0  0  0  0  0  0  0  0
    1.8161  -17.8170   33.0835 C   0  0  0  0  0  0  0  0  0  0  0  0
   -0.2651  -17.5919   35.9941 C   0  0  0  0  0  0  0  0  0  0  0  0
    2.1065  -17.3346   36.1664 C   0  0  0  0  0  0  0  0  0  0  0  0
   -0.5533  -19.4358   33.5985 C   0  0  0  0  0  0  0  0  0  0  0  0
    1.9898  -17.4610   37.5244 C   0  0  0  0  0  0  0  0  0  0  0  0
   -2.0461  -15.2754   33.5371 C   0  0  0  0  0  0  0  0  0  0  0  0
    0.7120  -17.3003   33.9433 C   0  0  1  0  0  0  0  0  0  0  0  0
   -0.8566  -15.8852   32.8473 C   0  0  1  0  0  0  0  0  0  0  0  0
   -0.3579  -17.7183   37.3870 C   0  0  0  0  0  0  0  0  0  0  0  0
   -0.6155  -15.1153   31.5545 C   0  0  0  0  0  0  0  0  0  0  0  0
    0.7810  -17.6527   38.1664 C   0  0  0  0  0  0  0  0  0  0  0  0
    0.9528  -17.4008   35.3771 C   0  0  0  0  0  0  0  0  0  0  0  0
   -0.6071  -17.9392   33.7337 C   0  0  2  0  0  0  0  0  0  0  0  0
   -1.2658  -17.6313   34.9811 N   0  0  0  0  0  0  0  0  0  0  0  0
   -1.1519  -17.2763   32.5991 N   0  0  0  0  0  4  0  0  0  0  0  0
  8  1  1  0
  1  9  1  0
  8  2  1  6
  3 10  2  0
 13  3  1  0
  3 15  1  0
  4  6  1  0
 13  4  2  0
 14  5  1  6
  6 12  2  0
  9  7  1  1
  8 13  1  0
  8 14  1  0
  9 11  1  0
  9 16  1  0
 10 12  1  0
 14 15  1  0
 14 16  1  0
M  CHG  1  16   1
M  END
$$$$
