
     RDKit          3D

  8  7  0  0  0  0  0  0  0  0999 V2000
    6.0995    7.4087    1.3514 O   0  0  0  0  0  0  0  0  0  0  0  0
    6.0352    6.5733    0.2305 C   0  0  0  0  0  0  0  0  0  0  0  0
    5.4791    5.2453    0.6785 C   0  0  2  0  0  0  0  0  0  0  0  0
    4.6253    2.1604   -1.1925 O   0  0  0  0  0  0  0  0  0  0  0  0
    4.4009    0.8339   -0.9312 C   0  0  0  0  0  0  0  0  0  0  0  0
    6.1533    4.7048    1.7546 O   0  0  0  0  0  0  0  0  0  0  0  0
    5.3209    4.2793   -0.4736 C   0  0  0  0  0  0  0  0  0  0  0  0
    4.7847    2.9518   -0.0638 C   0  0  0  0  0  0  0  0  0  0  0  0
  2  1  1  0
  3  2  1  0
  3  6  1  1
  7  3  1  0
  4  5  1  0
  8  4  1  0
  7  8  1  0
M  END
$$$$
