
     RDKit          3D

  8  7  0  0  0  0  0  0  0  0999 V2000
   -0.2034    5.2979    0.9823 O   0  0  0  0  0  0  0  0  0  0  0  0
    1.0978    4.8206    1.1754 C   0  0  0  0  0  0  0  0  0  0  0  0
    1.3097    3.6673    0.2275 C   0  0  2  0  0  0  0  0  0  0  0  0
    3.8538    1.9741   -1.3174 O   0  0  0  0  0  0  0  0  0  0  0  0
    5.1083    1.4993   -1.0365 C   0  0  0  0  0  0  0  0  0  0  0  0
    0.2732    2.7561    0.2342 O   0  0  0  0  0  0  0  0  0  0  0  0
    2.6680    3.0283    0.4068 C   0  0  0  0  0  0  0  0  0  0  0  0
    3.5691    3.2145   -0.7640 C   0  0  0  0  0  0  0  0  0  0  0  0
  2  1  1  0
  3  2  1  0
  3  6  1  1
  7  3  1  0
  4  5  1  0
  8  4  1  0
  7  8  1  0
M  END
$$$$
