
     RDKit          3D

  8  7  0  0  0  0  0  0  0  0999 V2000
    2.2642   -2.7656   -2.8890 O   0  0  0  0  0  0  0  0  0  0  0  0
    3.1813   -3.6433   -3.4780 C   0  0  0  0  0  0  0  0  0  0  0  0
    4.3553   -3.7777   -2.5415 C   0  0  2  0  0  0  0  0  0  0  0  0
    7.8406   -2.5506   -2.8454 O   0  0  0  0  0  0  0  0  0  0  0  0
    8.2135   -1.6171   -1.9139 C   0  0  0  0  0  0  0  0  0  0  0  0
    4.0228   -3.5847   -1.2161 O   0  0  0  0  0  0  0  0  0  0  0  0
    5.5354   -2.9452   -2.9886 C   0  0  0  0  0  0  0  0  0  0  0  0
    6.8344   -3.4110   -2.4292 C   0  0  0  0  0  0  0  0  0  0  0  0
  2  1  1  0
  3  2  1  0
  3  6  1  1
  7  3  1  0
  4  5  1  0
  8  4  1  0
  7  8  1  0
M  END
$$$$
