
     RDKit          3D

  8  7  0  0  0  0  0  0  0  0999 V2000
   -3.7233   -6.7916   -0.7903 O   0  0  0  0  0  0  0  0  0  0  0  0
   -4.7816   -6.4488    0.0587 C   0  0  0  0  0  0  0  0  0  0  0  0
   -5.3881   -5.1682   -0.4568 C   0  0  2  0  0  0  0  0  0  0  0  0
   -4.2451   -1.6449   -0.2853 O   0  0  0  0  0  0  0  0  0  0  0  0
   -4.6485   -0.4074   -0.7143 C   0  0  0  0  0  0  0  0  0  0  0  0
   -5.7312   -5.2242   -1.7923 O   0  0  0  0  0  0  0  0  0  0  0  0
   -4.5476   -3.9615   -0.1061 C   0  0  0  0  0  0  0  0  0  0  0  0
   -5.0860   -2.6857   -0.6536 C   0  0  0  0  0  0  0  0  0  0  0  0
  2  1  1  0
  3  2  1  0
  3  6  1  6
  7  3  1  0
  4  5  1  0
  8  4  1  0
  7  8  1  0
M  END
$$$$
