
     RDKit          3D

  8  7  0  0  0  0  0  0  0  0999 V2000
   -7.8423    1.5352   -1.5041 O   0  0  0  0  0  0  0  0  0  0  0  0
   -7.9129    1.9774   -0.1783 C   0  0  0  0  0  0  0  0  0  0  0  0
   -7.1629    3.2824   -0.0885 C   0  0  2  0  0  0  0  0  0  0  0  0
   -5.1904    3.3374    3.0508 O   0  0  0  0  0  0  0  0  0  0  0  0
   -4.2926    4.3626    3.1953 C   0  0  0  0  0  0  0  0  0  0  0  0
   -6.1198    3.3768   -0.9870 O   0  0  0  0  0  0  0  0  0  0  0  0
   -6.7594    3.6078    1.3316 C   0  0  0  0  0  0  0  0  0  0  0  0
   -5.4650    2.9920    1.7351 C   0  0  0  0  0  0  0  0  0  0  0  0
  2  1  1  0
  3  2  1  0
  3  6  1  6
  7  3  1  0
  4  5  1  0
  8  4  1  0
  7  8  1  0
M  END
$$$$
