
     RDKit          3D

  8  7  0  0  0  0  0  0  0  0999 V2000
   -8.5554    1.6619   -0.7023 O   0  0  0  0  0  0  0  0  0  0  0  0
   -8.0581    2.9673   -0.6195 C   0  0  0  0  0  0  0  0  0  0  0  0
   -6.5942    2.8801   -0.2688 C   0  0  2  0  0  0  0  0  0  0  0  0
   -5.0681    4.0111    2.9045 O   0  0  0  0  0  0  0  0  0  0  0  0
   -3.8736    3.3777    3.1285 C   0  0  0  0  0  0  0  0  0  0  0  0
   -5.9642    1.7828   -0.8197 O   0  0  0  0  0  0  0  0  0  0  0  0
   -6.3581    3.0205    1.2179 C   0  0  0  0  0  0  0  0  0  0  0  0
   -5.4199    4.1229    1.5668 C   0  0  0  0  0  0  0  0  0  0  0  0
  2  1  1  0
  3  2  1  0
  3  6  1  1
  7  3  1  0
  4  5  1  0
  8  4  1  0
  7  8  1  0
M  END
$$$$
