
     RDKit          3D

  8  7  0  0  0  0  0  0  0  0999 V2000
    6.5695    6.0464   -2.3180 O   0  0  0  0  0  0  0  0  0  0  0  0
    5.3547    6.4800   -1.7751 C   0  0  0  0  0  0  0  0  0  0  0  0
    4.8842    5.4278   -0.8030 C   0  0  2  0  0  0  0  0  0  0  0  0
    1.4527    4.6290    0.3515 O   0  0  0  0  0  0  0  0  0  0  0  0
    1.1505    4.3008    1.6473 C   0  0  0  0  0  0  0  0  0  0  0  0
    5.1842    4.1412   -1.2018 O   0  0  0  0  0  0  0  0  0  0  0  0
    3.4318    5.6131   -0.4262 C   0  0  0  0  0  0  0  0  0  0  0  0
    2.7580    4.3469   -0.0257 C   0  0  0  0  0  0  0  0  0  0  0  0
  2  1  1  0
  3  2  1  0
  3  6  1  6
  7  3  1  0
  4  5  1  0
  8  4  1  0
  7  8  1  0
M  END
$$$$
