
     RDKit          3D

  8  7  0  0  0  0  0  0  0  0999 V2000
   -0.6298   -3.0640    0.4251 O   0  0  0  0  0  0  0  0  0  0  0  0
   -1.6418   -3.9471    0.8177 C   0  0  0  0  0  0  0  0  0  0  0  0
   -2.6665   -3.9925   -0.2875 C   0  0  2  0  0  0  0  0  0  0  0  0
   -5.6347   -6.1491   -0.8185 O   0  0  0  0  0  0  0  0  0  0  0  0
   -6.7305   -6.2119   -1.6391 C   0  0  0  0  0  0  0  0  0  0  0  0
   -3.2571   -2.7704   -0.5364 O   0  0  0  0  0  0  0  0  0  0  0  0
   -3.6658   -5.1094   -0.0885 C   0  0  0  0  0  0  0  0  0  0  0  0
   -4.8200   -5.0452   -1.0273 C   0  0  0  0  0  0  0  0  0  0  0  0
  2  1  1  0
  3  2  1  0
  3  6  1  1
  7  3  1  0
  4  5  1  0
  8  4  1  0
  7  8  1  0
M  END
$$$$
