
     RDKit          3D

  8  7  0  0  0  0  0  0  0  0999 V2000
   -5.7430   -2.0517    1.3553 O   0  0  0  0  0  0  0  0  0  0  0  0
   -6.1251   -2.9277    0.3330 C   0  0  0  0  0  0  0  0  0  0  0  0
   -5.3301   -4.1986    0.4958 C   0  0  2  0  0  0  0  0  0  0  0  0
   -1.8155   -4.9806   -0.3864 O   0  0  0  0  0  0  0  0  0  0  0  0
   -0.8044   -5.8045    0.0343 C   0  0  0  0  0  0  0  0  0  0  0  0
   -5.2507   -4.6303    1.8041 O   0  0  0  0  0  0  0  0  0  0  0  0
   -3.9849   -4.1175   -0.1892 C   0  0  0  0  0  0  0  0  0  0  0  0
   -2.9848   -5.0775    0.3545 C   0  0  0  0  0  0  0  0  0  0  0  0
  2  1  1  0
  3  2  1  0
  3  6  1  1
  7  3  1  0
  4  5  1  0
  8  4  1  0
  7  8  1  0
M  END
$$$$
