
     RDKit          3D

  8  7  0  0  0  0  0  0  0  0999 V2000
   -2.9729   -1.5555   -1.3476 O   0  0  0  0  0  0  0  0  0  0  0  0
   -4.3555   -1.5439   -1.1316 C   0  0  0  0  0  0  0  0  0  0  0  0
   -4.6097   -2.0948    0.2488 C   0  0  2  0  0  0  0  0  0  0  0  0
   -6.2210   -5.3768    0.8381 O   0  0  0  0  0  0  0  0  0  0  0  0
   -5.8795   -6.6319    1.2695 C   0  0  0  0  0  0  0  0  0  0  0  0
   -3.4562   -2.4569    0.9142 O   0  0  0  0  0  0  0  0  0  0  0  0
   -5.6608   -3.1813    0.2409 C   0  0  0  0  0  0  0  0  0  0  0  0
   -5.1530   -4.4998    0.7114 C   0  0  0  0  0  0  0  0  0  0  0  0
  2  1  1  0
  3  2  1  0
  3  6  1  6
  7  3  1  0
  4  5  1  0
  8  4  1  0
  7  8  1  0
M  END
$$$$
