
     RDKit          3D

 20 22  0  0  0  0  0  0  0  0999 V2000
   -8.4919   14.5422  -27.7496 C   0  0  0  0  0  0  0  0  0  0  0  0
   -9.6933   12.8236  -25.9270 C   0  0  0  0  0  0  0  0  0  0  0  0
   -9.6476   10.7728  -24.5775 C   0  0  0  0  0  0  0  0  0  0  0  0
  -11.5817   10.0061  -23.4062 N   0  0  0  0  0  0  0  0  0  0  0  0
  -12.3360   11.0252  -23.8471 C   0  0  0  0  0  0  0  0  0  0  0  0
  -10.1162   13.8566  -29.5380 C   0  0  2  0  0  0  0  0  0  0  0  0
  -12.1245   14.0700  -30.9848 C   0  0  0  0  0  0  0  0  0  0  0  0
   -9.8381   12.6984  -30.4235 C   0  0  0  0  0  0  0  0  0  0  0  0
   -8.2313   13.3560  -24.0763 C   0  0  0  0  0  0  0  0  0  0  0  0
   -8.6819   13.5177  -25.4993 C   0  0  0  0  0  0  0  0  0  0  0  0
   -7.9636   14.4706  -26.3836 C   0  0  0  0  0  0  0  0  0  0  0  0
   -7.8952   15.3473  -28.5417 O   0  0  0  0  0  0  0  0  0  0  0  0
   -9.5971   13.7819  -28.2077 N   0  0  0  0  0  0  0  0  0  0  0  0
  -10.1825   12.9298  -27.2824 N   0  0  0  0  0  0  0  0  0  0  0  0
  -10.4026   11.8503  -25.0585 C   0  0  0  0  0  0  0  0  0  0  0  0
  -10.2910    9.8833  -23.7556 C   0  0  0  0  0  0  0  0  0  0  0  0
  -11.7013   11.9474  -24.6883 C   0  0  0  0  0  0  0  0  0  0  0  0
  -11.6419   14.0441  -29.5269 C   0  0  0  0  0  0  0  0  0  0  0  0
  -12.0975   12.7138  -31.4403 N   0  0  0  0  0  4  0  0  0  0  0  0
  -11.0874   11.9358  -30.7980 C   0  0  0  0  0  0  0  0  0  0  0  0
 11  1  1  0
  1 12  2  0
  1 13  1  0
 10  2  2  0
  2 14  1  0
  2 15  1  0
 15  3  2  0
  3 16  1  0
  4  5  1  0
 16  4  2  0
  5 17  2  0
  6  8  1  0
  6 13  1  1
  6 18  1  0
 18  7  1  0
  7 19  1  0
  8 20  1  0
 10  9  1  0
 10 11  1  0
 13 14  1  0
 15 17  1  0
 19 20  1  0
M  CHG  1  19   1
M  END
$$$$
