
     RDKit          3D

 20 22  0  0  0  0  0  0  0  0999 V2000
   -2.3779    9.4148  -21.8073 C   0  0  0  0  0  0  0  0  0  0  0  0
   -3.8110    7.4539  -20.4585 C   0  0  0  0  0  0  0  0  0  0  0  0
   -5.5394    6.7106  -18.8806 C   0  0  0  0  0  0  0  0  0  0  0  0
   -6.1666    4.4134  -18.7075 N   0  0  0  0  0  0  0  0  0  0  0  0
   -5.2820    4.0313  -19.6420 C   0  0  0  0  0  0  0  0  0  0  0  0
   -3.3318    8.6656  -24.0064 C   0  0  2  0  0  0  0  0  0  0  0  0
   -4.8319    8.5115  -25.9808 C   0  0  0  0  0  0  0  0  0  0  0  0
   -2.4900    7.7493  -24.8153 C   0  0  0  0  0  0  0  0  0  0  0  0
   -3.0093    8.0285  -18.2510 C   0  0  0  0  0  0  0  0  0  0  0  0
   -3.0588    8.2301  -19.7380 C   0  0  0  0  0  0  0  0  0  0  0  0
   -2.2500    9.3152  -20.3500 C   0  0  0  0  0  0  0  0  0  0  0  0
   -1.6916   10.3333  -22.3704 O   0  0  0  0  0  0  0  0  0  0  0  0
   -3.2022    8.5641  -22.5858 N   0  0  0  0  0  0  0  0  0  0  0  0
   -3.9091    7.5917  -21.8934 N   0  0  0  0  0  0  0  0  0  0  0  0
   -4.6042    6.3507  -19.8596 C   0  0  0  0  0  0  0  0  0  0  0  0
   -6.2917    5.6991  -18.3407 C   0  0  0  0  0  0  0  0  0  0  0  0
   -4.5016    5.0466  -20.2087 C   0  0  0  0  0  0  0  0  0  0  0  0
   -4.7854    8.4304  -24.4476 C   0  0  0  0  0  0  0  0  0  0  0  0
   -4.2796    7.2832  -26.4642 N   0  0  0  0  0  4  0  0  0  0  0  0
   -3.3028    6.7318  -25.5810 C   0  0  0  0  0  0  0  0  0  0  0  0
 11  1  1  0
  1 12  2  0
  1 13  1  0
 10  2  2  0
  2 14  1  0
  2 15  1  0
 15  3  2  0
  3 16  1  0
  4  5  1  0
 16  4  2  0
  5 17  2  0
  6  8  1  0
  6 13  1  1
  6 18  1  0
 18  7  1  0
  7 19  1  0
  8 20  1  0
 10  9  1  0
 10 11  1  0
 13 14  1  0
 15 17  1  0
 19 20  1  0
M  CHG  1  19   1
M  END
$$$$
