
     RDKit          3D

 20 22  0  0  0  0  0  0  0  0999 V2000
   -5.2383    4.5490  -21.7816 C   0  0  0  0  0  0  0  0  0  0  0  0
   -3.9286    6.4546  -20.2417 C   0  0  0  0  0  0  0  0  0  0  0  0
   -2.5621    7.1381  -18.3195 C   0  0  0  0  0  0  0  0  0  0  0  0
   -1.6720    9.3465  -18.1431 N   0  0  0  0  0  0  0  0  0  0  0  0
   -2.2289    9.7364  -19.3005 C   0  0  0  0  0  0  0  0  0  0  0  0
   -3.5982    4.8684  -23.6564 C   0  0  2  0  0  0  0  0  0  0  0  0
   -2.3590    5.6733  -25.6535 C   0  0  0  0  0  0  0  0  0  0  0  0
   -4.6021    4.4745  -24.6761 C   0  0  0  0  0  0  0  0  0  0  0  0
   -5.3978    6.2870  -18.3287 C   0  0  0  0  0  0  0  0  0  0  0  0
   -4.9710    5.8887  -19.7121 C   0  0  0  0  0  0  0  0  0  0  0  0
   -5.7482    4.8539  -20.4410 C   0  0  0  0  0  0  0  0  0  0  0  0
   -5.8852    3.6674  -22.4419 O   0  0  0  0  0  0  0  0  0  0  0  0
   -4.0990    5.1706  -22.3514 N   0  0  0  0  0  0  0  0  0  0  0  0
   -3.4596    6.1192  -21.5665 N   0  0  0  0  0  0  0  0  0  0  0  0
   -3.1595    7.5077  -19.5315 C   0  0  0  0  0  0  0  0  0  0  0  0
   -1.8307    8.0996  -17.6705 C   0  0  0  0  0  0  0  0  0  0  0  0
   -2.9811    8.7718  -19.9823 C   0  0  0  0  0  0  0  0  0  0  0  0
   -2.8229    6.0599  -24.2411 C   0  0  0  0  0  0  0  0  0  0  0  0
   -3.5144    5.7608  -26.4931 N   0  0  0  0  0  4  0  0  0  0  0  0
   -4.7275    5.4839  -25.7932 C   0  0  0  0  0  0  0  0  0  0  0  0
 11  1  1  0
  1 12  2  0
  1 13  1  0
 10  2  2  0
  2 14  1  0
  2 15  1  0
 15  3  2  0
  3 16  1  0
  4  5  1  0
 16  4  2  0
  5 17  2  0
  6  8  1  0
  6 13  1  1
  6 18  1  0
 18  7  1  0
  7 19  1  0
  8 20  1  0
 10  9  1  0
 10 11  1  0
 13 14  1  0
 15 17  1  0
 19 20  1  0
M  CHG  1  19   1
M  END
$$$$
