
     RDKit          3D

 20 22  0  0  0  0  0  0  0  0999 V2000
   -2.1517    6.4502  -20.3940 C   0  0  0  0  0  0  0  0  0  0  0  0
   -4.7699    7.1655  -20.9868 C   0  0  0  0  0  0  0  0  0  0  0  0
   -7.0115    6.3384  -21.5527 C   0  0  0  0  0  0  0  0  0  0  0  0
   -8.7910    7.8321  -22.1028 N   0  0  0  0  0  0  0  0  0  0  0  0
   -8.0142    8.9176  -21.9611 C   0  0  0  0  0  0  0  0  0  0  0  0
   -2.0438    4.9789  -22.4264 C   0  0  2  0  0  0  0  0  0  0  0  0
   -1.0092    4.6069  -24.6543 C   0  0  0  0  0  0  0  0  0  0  0  0
   -2.7471    3.7139  -22.7553 C   0  0  0  0  0  0  0  0  0  0  0  0
   -5.0670    8.6326  -19.0880 C   0  0  0  0  0  0  0  0  0  0  0  0
   -4.2462    7.6900  -19.9200 C   0  0  0  0  0  0  0  0  0  0  0  0
   -2.8533    7.3827  -19.5062 C   0  0  0  0  0  0  0  0  0  0  0  0
   -0.9523    6.1569  -20.0667 O   0  0  0  0  0  0  0  0  0  0  0  0
   -2.7305    5.8832  -21.5571 N   0  0  0  0  0  0  0  0  0  0  0  0
   -4.0384    6.2530  -21.8352 N   0  0  0  0  0  0  0  0  0  0  0  0
   -6.1694    7.4468  -21.3956 C   0  0  0  0  0  0  0  0  0  0  0  0
   -8.3116    6.5932  -21.9071 C   0  0  0  0  0  0  0  0  0  0  0  0
   -6.6818    8.6833  -21.5993 C   0  0  0  0  0  0  0  0  0  0  0  0
   -1.7011    5.6513  -23.7655 C   0  0  0  0  0  0  0  0  0  0  0  0
   -2.0418    3.7382  -25.1303 N   0  0  0  0  0  4  0  0  0  0  0  0
   -3.1299    3.6201  -24.2137 C   0  0  0  0  0  0  0  0  0  0  0  0
 11  1  1  0
  1 12  2  0
  1 13  1  0
 10  2  2  0
  2 14  1  0
  2 15  1  0
 15  3  2  0
  3 16  1  0
  4  5  1  0
 16  4  2  0
  5 17  2  0
  6  8  1  0
  6 13  1  1
  6 18  1  0
 18  7  1  0
  7 19  1  0
  8 20  1  0
 10  9  1  0
 10 11  1  0
 13 14  1  0
 15 17  1  0
 19 20  1  0
M  CHG  1  19   1
M  END
$$$$
