
     RDKit          3D

 20 22  0  0  0  0  0  0  0  0999 V2000
   -5.2598    7.0602  -23.5253 C   0  0  0  0  0  0  0  0  0  0  0  0
   -4.2644    7.4328  -20.9585 C   0  0  0  0  0  0  0  0  0  0  0  0
   -4.3828    7.2218  -18.5150 C   0  0  0  0  0  0  0  0  0  0  0  0
   -2.5170    7.7559  -17.1242 N   0  0  0  0  0  0  0  0  0  0  0  0
   -1.7513    8.1055  -18.1699 C   0  0  0  0  0  0  0  0  0  0  0  0
   -3.2884    5.6277  -24.1325 C   0  0  2  0  0  0  0  0  0  0  0  0
   -1.9255    3.5814  -24.4891 C   0  0  0  0  0  0  0  0  0  0  0  0
   -2.1359    6.2797  -24.8028 C   0  0  0  0  0  0  0  0  0  0  0  0
   -6.0808    8.8276  -20.1831 C   0  0  0  0  0  0  0  0  0  0  0  0
   -5.3934    8.0109  -21.2390 C   0  0  0  0  0  0  0  0  0  0  0  0
   -6.0224    7.8793  -22.5780 C   0  0  0  0  0  0  0  0  0  0  0  0
   -5.7669    6.9292  -24.6904 O   0  0  0  0  0  0  0  0  0  0  0  0
   -4.0288    6.4319  -23.2105 N   0  0  0  0  0  0  0  0  0  0  0  0
   -3.5490    6.6305  -21.9239 N   0  0  0  0  0  0  0  0  0  0  0  0
   -3.6150    7.5782  -19.6312 C   0  0  0  0  0  0  0  0  0  0  0  0
   -3.7804    7.3314  -17.2879 C   0  0  0  0  0  0  0  0  0  0  0  0
   -2.3442    8.0021  -19.4343 C   0  0  0  0  0  0  0  0  0  0  0  0
   -2.7413    4.3641  -23.4493 C   0  0  0  0  0  0  0  0  0  0  0  0
   -0.6845    4.2789  -24.6329 N   0  0  0  0  0  4  0  0  0  0  0  0
   -0.8091    5.6815  -24.3976 C   0  0  0  0  0  0  0  0  0  0  0  0
 11  1  1  0
  1 12  2  0
  1 13  1  0
 10  2  2  0
  2 14  1  0
  2 15  1  0
 15  3  2  0
  3 16  1  0
  4  5  1  0
 16  4  2  0
  5 17  2  0
  6  8  1  0
  6 13  1  1
  6 18  1  0
 18  7  1  0
  7 19  1  0
  8 20  1  0
 10  9  1  0
 10 11  1  0
 13 14  1  0
 15 17  1  0
 19 20  1  0
M  CHG  1  19   1
M  END
$$$$
