
     RDKit          3D

 20 22  0  0  0  0  0  0  0  0999 V2000
   -6.3857    6.7004  -22.6671 C   0  0  0  0  0  0  0  0  0  0  0  0
   -4.4634    7.2297  -20.7324 C   0  0  0  0  0  0  0  0  0  0  0  0
   -2.1655    7.9430  -20.2425 C   0  0  0  0  0  0  0  0  0  0  0  0
   -1.2694    7.8344  -18.0322 N   0  0  0  0  0  0  0  0  0  0  0  0
   -2.4018    7.3220  -17.5253 C   0  0  0  0  0  0  0  0  0  0  0  0
   -5.2751    4.5225  -23.2420 C   0  0  2  0  0  0  0  0  0  0  0  0
   -4.7987    2.0844  -23.2219 C   0  0  0  0  0  0  0  0  0  0  0  0
   -4.3030    4.5082  -24.3635 C   0  0  0  0  0  0  0  0  0  0  0  0
   -5.3866    9.3521  -20.0331 C   0  0  0  0  0  0  0  0  0  0  0  0
   -5.3979    8.1184  -20.8887 C   0  0  0  0  0  0  0  0  0  0  0  0
   -6.4797    7.9408  -21.8908 C   0  0  0  0  0  0  0  0  0  0  0  0
   -7.2961    6.5155  -23.5439 O   0  0  0  0  0  0  0  0  0  0  0  0
   -5.3629    5.7352  -22.4892 N   0  0  0  0  0  0  0  0  0  0  0  0
   -4.4130    6.0185  -21.5186 N   0  0  0  0  0  0  0  0  0  0  0  0
   -3.3638    7.4091  -19.7510 C   0  0  0  0  0  0  0  0  0  0  0  0
   -1.1541    8.1332  -19.3362 C   0  0  0  0  0  0  0  0  0  0  0  0
   -3.4499    7.1185  -18.4314 C   0  0  0  0  0  0  0  0  0  0  0  0
   -4.9173    3.3335  -22.3359 C   0  0  0  0  0  0  0  0  0  0  0  0
   -3.5458    2.1942  -23.9042 N   0  0  0  0  0  4  0  0  0  0  0  0
   -3.1587    3.5492  -24.1328 C   0  0  0  0  0  0  0  0  0  0  0  0
 11  1  1  0
  1 12  2  0
  1 13  1  0
 10  2  2  0
  2 14  1  0
  2 15  1  0
 15  3  2  0
  3 16  1  0
  4  5  1  0
 16  4  2  0
  5 17  2  0
  6  8  1  0
  6 13  1  1
  6 18  1  0
 18  7  1  0
  7 19  1  0
  8 20  1  0
 10  9  1  0
 10 11  1  0
 13 14  1  0
 15 17  1  0
 19 20  1  0
M  CHG  1  19   1
M  END
$$$$
