
     RDKit          3D

 20 22  0  0  0  0  0  0  0  0999 V2000
    0.9201    0.2214   -9.1974 C   0  0  0  0  0  0  0  0  0  0  0  0
    2.5422    2.4381   -9.6140 C   0  0  0  0  0  0  0  0  0  0  0  0
    4.8348    3.2604   -9.9251 C   0  0  0  0  0  0  0  0  0  0  0  0
    5.2747    5.5162  -10.5718 N   0  0  0  0  0  0  0  0  0  0  0  0
    3.9709    5.8345  -10.5978 C   0  0  0  0  0  0  0  0  0  0  0  0
    2.3242   -1.1579  -10.7571 C   0  0  2  0  0  0  0  0  0  0  0  0
    3.9995   -2.4665  -12.0429 C   0  0  0  0  0  0  0  0  0  0  0  0
    1.4472   -1.5240  -11.8971 C   0  0  0  0  0  0  0  0  0  0  0  0
    1.3223    3.9231   -8.1469 C   0  0  0  0  0  0  0  0  0  0  0  0
    1.5404    2.5894   -8.8011 C   0  0  0  0  0  0  0  0  0  0  0  0
    0.6081    1.4730   -8.5000 C   0  0  0  0  0  0  0  0  0  0  0  0
    0.1359   -0.7605   -8.9680 O   0  0  0  0  0  0  0  0  0  0  0  0
    2.0164    0.0646  -10.0822 N   0  0  0  0  0  0  0  0  0  0  0  0
    2.8137    1.1832  -10.2767 N   0  0  0  0  0  0  0  0  0  0  0  0
    3.4652    3.5543   -9.9408 C   0  0  0  0  0  0  0  0  0  0  0  0
    5.6914    4.2811  -10.2492 C   0  0  0  0  0  0  0  0  0  0  0  0
    3.0759    4.8085  -10.2705 C   0  0  0  0  0  0  0  0  0  0  0  0
    3.7633   -1.1446  -11.2972 C   0  0  0  0  0  0  0  0  0  0  0  0
    3.3192   -2.3472  -13.2960 N   0  0  0  0  0  4  0  0  0  0  0  0
    2.1716   -1.5012  -13.2227 C   0  0  0  0  0  0  0  0  0  0  0  0
 11  1  1  0
  1 12  2  0
  1 13  1  0
 10  2  2  0
  2 14  1  0
  2 15  1  0
 15  3  2  0
  3 16  1  0
  4  5  1  0
 16  4  2  0
  5 17  2  0
  6  8  1  0
  6 13  1  6
  6 18  1  0
 18  7  1  0
  7 19  1  0
  8 20  1  0
 10  9  1  0
 10 11  1  0
 13 14  1  0
 15 17  1  0
 19 20  1  0
M  CHG  1  19   1
M  END
$$$$
