
     RDKit          3D

 20 22  0  0  0  0  0  0  0  0999 V2000
   -5.9751    7.0530  -22.7447 C   0  0  0  0  0  0  0  0  0  0  0  0
   -4.2905    7.3546  -20.5563 C   0  0  0  0  0  0  0  0  0  0  0  0
   -3.3184    6.4254  -18.5018 C   0  0  0  0  0  0  0  0  0  0  0  0
   -1.4784    7.4790  -17.4042 N   0  0  0  0  0  0  0  0  0  0  0  0
   -1.4259    8.4755  -18.3020 C   0  0  0  0  0  0  0  0  0  0  0  0
   -4.3992    5.4000  -23.7894 C   0  0  2  0  0  0  0  0  0  0  0  0
   -3.0231    3.4467  -24.4696 C   0  0  0  0  0  0  0  0  0  0  0  0
   -3.7819    6.0107  -24.9931 C   0  0  0  0  0  0  0  0  0  0  0  0
   -5.6766    8.9556  -19.3893 C   0  0  0  0  0  0  0  0  0  0  0  0
   -5.3877    8.0501  -20.5516 C   0  0  0  0  0  0  0  0  0  0  0  0
   -6.3651    7.9674  -21.6669 C   0  0  0  0  0  0  0  0  0  0  0  0
   -6.7887    6.9601  -23.7251 O   0  0  0  0  0  0  0  0  0  0  0  0
   -4.7762    6.2967  -22.7412 N   0  0  0  0  0  0  0  0  0  0  0  0
   -3.9490    6.4618  -21.6397 N   0  0  0  0  0  0  0  0  0  0  0  0
   -3.2953    7.4486  -19.4584 C   0  0  0  0  0  0  0  0  0  0  0  0
   -2.3861    6.4939  -17.4985 C   0  0  0  0  0  0  0  0  0  0  0  0
   -2.3681    8.4277  -19.3368 C   0  0  0  0  0  0  0  0  0  0  0  0
   -3.4114    4.3380  -23.2804 C   0  0  0  0  0  0  0  0  0  0  0  0
   -2.1029    4.2079  -25.2578 N   0  0  0  0  0  4  0  0  0  0  0  0
   -2.3353    5.6139  -25.1731 C   0  0  0  0  0  0  0  0  0  0  0  0
 11  1  1  0
  1 12  2  0
  1 13  1  0
 10  2  2  0
  2 14  1  0
  2 15  1  0
 15  3  2  0
  3 16  1  0
  4  5  1  0
 16  4  2  0
  5 17  2  0
  6  8  1  0
  6 13  1  1
  6 18  1  0
 18  7  1  0
  7 19  1  0
  8 20  1  0
 10  9  1  0
 10 11  1  0
 13 14  1  0
 15 17  1  0
 19 20  1  0
M  CHG  1  19   1
M  END
$$$$
