
     RDKit          3D

 20 22  0  0  0  0  0  0  0  0999 V2000
   -3.9926    4.3348  -20.2395 C   0  0  0  0  0  0  0  0  0  0  0  0
   -4.0908    7.0746  -20.6891 C   0  0  0  0  0  0  0  0  0  0  0  0
   -3.1019    9.0282  -21.8001 C   0  0  0  0  0  0  0  0  0  0  0  0
   -4.2216   11.1364  -21.8482 N   0  0  0  0  0  0  0  0  0  0  0  0
   -5.2648   10.6749  -21.1407 C   0  0  0  0  0  0  0  0  0  0  0  0
   -4.0092    3.8814  -22.7096 C   0  0  2  0  0  0  0  0  0  0  0  0
   -2.8303    3.1416  -24.7675 C   0  0  0  0  0  0  0  0  0  0  0  0
   -5.1687    3.9588  -23.6328 C   0  0  0  0  0  0  0  0  0  0  0  0
   -4.0763    7.7139  -18.3573 C   0  0  0  0  0  0  0  0  0  0  0  0
   -4.0595    6.6846  -19.4504 C   0  0  0  0  0  0  0  0  0  0  0  0
   -4.0030    5.2449  -19.0899 C   0  0  0  0  0  0  0  0  0  0  0  0
   -3.9506    3.0872  -19.9685 O   0  0  0  0  0  0  0  0  0  0  0  0
   -4.0259    4.7690  -21.5884 N   0  0  0  0  0  0  0  0  0  0  0  0
   -4.0750    6.1406  -21.7913 N   0  0  0  0  0  0  0  0  0  0  0  0
   -4.1723    8.5101  -21.0598 C   0  0  0  0  0  0  0  0  0  0  0  0
   -3.1825   10.3475  -22.1658 C   0  0  0  0  0  0  0  0  0  0  0  0
   -5.2060    9.3299  -20.7553 C   0  0  0  0  0  0  0  0  0  0  0  0
   -2.7511    4.0958  -23.5663 C   0  0  0  0  0  0  0  0  0  0  0  0
   -3.7817    3.7124  -25.6710 N   0  0  0  0  0  4  0  0  0  0  0  0
   -4.7914    4.4695  -25.0036 C   0  0  0  0  0  0  0  0  0  0  0  0
 11  1  1  0
  1 12  2  0
  1 13  1  0
 10  2  2  0
  2 14  1  0
  2 15  1  0
 15  3  2  0
  3 16  1  0
  4  5  1  0
 16  4  2  0
  5 17  2  0
  6  8  1  0
  6 13  1  1
  6 18  1  0
 18  7  1  0
  7 19  1  0
  8 20  1  0
 10  9  1  0
 10 11  1  0
 13 14  1  0
 15 17  1  0
 19 20  1  0
M  CHG  1  19   1
M  END
$$$$
