
     RDKit          3D

 20 22  0  0  0  0  0  0  0  0999 V2000
   -2.3846    8.1428  -22.1681 C   0  0  0  0  0  0  0  0  0  0  0  0
   -3.6142    7.2996  -19.8239 C   0  0  0  0  0  0  0  0  0  0  0  0
   -3.5201    6.6305  -17.4633 C   0  0  0  0  0  0  0  0  0  0  0  0
   -5.4276    5.7307  -16.3441 N   0  0  0  0  0  0  0  0  0  0  0  0
   -6.1940    5.8090  -17.4433 C   0  0  0  0  0  0  0  0  0  0  0  0
   -3.1731    6.0874  -23.3765 C   0  0  2  0  0  0  0  0  0  0  0  0
   -4.4328    4.3222  -24.5887 C   0  0  0  0  0  0  0  0  0  0  0  0
   -2.0253    5.1873  -23.6509 C   0  0  0  0  0  0  0  0  0  0  0  0
   -2.9561    9.2079  -18.4929 C   0  0  0  0  0  0  0  0  0  0  0  0
   -2.9830    8.4341  -19.7794 C   0  0  0  0  0  0  0  0  0  0  0  0
   -2.2911    8.9860  -20.9721 C   0  0  0  0  0  0  0  0  0  0  0  0
   -1.7958    8.5822  -23.2132 O   0  0  0  0  0  0  0  0  0  0  0  0
   -3.0766    6.9064  -22.2083 N   0  0  0  0  0  0  0  0  0  0  0  0
   -3.6833    6.5033  -21.0275 N   0  0  0  0  0  0  0  0  0  0  0  0
   -4.2880    6.7273  -18.6310 C   0  0  0  0  0  0  0  0  0  0  0  0
   -4.1439    6.1247  -16.3516 C   0  0  0  0  0  0  0  0  0  0  0  0
   -5.5795    6.3226  -18.5920 C   0  0  0  0  0  0  0  0  0  0  0  0
   -4.4259    5.1982  -23.3270 C   0  0  0  0  0  0  0  0  0  0  0  0
   -3.4574    3.2981  -24.3711 N   0  0  0  0  0  4  0  0  0  0  0  0
   -2.3868    3.7255  -23.5291 C   0  0  0  0  0  0  0  0  0  0  0  0
 11  1  1  0
  1 12  2  0
  1 13  1  0
 10  2  2  0
  2 14  1  0
  2 15  1  0
 15  3  2  0
  3 16  1  0
  4  5  1  0
 16  4  2  0
  5 17  2  0
  6  8  1  0
  6 13  1  1
  6 18  1  0
 18  7  1  0
  7 19  1  0
  8 20  1  0
 10  9  1  0
 10 11  1  0
 13 14  1  0
 15 17  1  0
 19 20  1  0
M  CHG  1  19   1
M  END
$$$$
