
     RDKit          3D

 20 22  0  0  0  0  0  0  0  0999 V2000
   -3.6170    5.5031  -19.7931 C   0  0  0  0  0  0  0  0  0  0  0  0
   -4.3943    7.8210  -21.1126 C   0  0  0  0  0  0  0  0  0  0  0  0
   -3.9354   10.1948  -21.5411 C   0  0  0  0  0  0  0  0  0  0  0  0
   -5.0949   11.4029  -23.2430 N   0  0  0  0  0  0  0  0  0  0  0  0
   -5.8323   10.3369  -23.5920 C   0  0  0  0  0  0  0  0  0  0  0  0
   -1.2275    5.8571  -20.4802 C   0  0  2  0  0  0  0  0  0  0  0  0
    1.1396    6.5913  -20.6534 C   0  0  0  0  0  0  0  0  0  0  0  0
   -0.8166    4.9254  -21.5600 C   0  0  0  0  0  0  0  0  0  0  0  0
   -6.7397    7.6585  -20.5483 C   0  0  0  0  0  0  0  0  0  0  0  0
   -5.3271    7.1517  -20.5049 C   0  0  0  0  0  0  0  0  0  0  0  0
   -5.0285    5.8992  -19.7645 C   0  0  0  0  0  0  0  0  0  0  0  0
   -3.3225    4.4265  -19.1717 O   0  0  0  0  0  0  0  0  0  0  0  0
   -2.6051    6.2402  -20.4579 N   0  0  0  0  0  0  0  0  0  0  0  0
   -3.0140    7.3941  -21.1108 N   0  0  0  0  0  0  0  0  0  0  0  0
   -4.6861    9.0606  -21.8761 C   0  0  0  0  0  0  0  0  0  0  0  0
   -4.1837   11.3366  -22.2589 C   0  0  0  0  0  0  0  0  0  0  0  0
   -5.5969    9.1583  -22.8732 C   0  0  0  0  0  0  0  0  0  0  0  0
   -0.3128    7.0875  -20.5906 C   0  0  0  0  0  0  0  0  0  0  0  0
    1.3332    6.0843  -21.9774 N   0  0  0  0  0  4  0  0  0  0  0  0
    0.1347    5.5590  -22.5480 C   0  0  0  0  0  0  0  0  0  0  0  0
 11  1  1  0
  1 12  2  0
  1 13  1  0
 10  2  2  0
  2 14  1  0
  2 15  1  0
 15  3  2  0
  3 16  1  0
  4  5  1  0
 16  4  2  0
  5 17  2  0
  6  8  1  0
  6 13  1  6
  6 18  1  0
 18  7  1  0
  7 19  1  0
  8 20  1  0
 10  9  1  0
 10 11  1  0
 13 14  1  0
 15 17  1  0
 19 20  1  0
M  CHG  1  19   1
M  END
$$$$
