
     RDKit          3D

 20 22  0  0  0  0  0  0  0  0999 V2000
   -1.0165    7.5907  -21.1789 C   0  0  0  0  0  0  0  0  0  0  0  0
   -3.7261    7.2611  -20.6613 C   0  0  0  0  0  0  0  0  0  0  0  0
   -5.9522    8.1155  -20.0751 C   0  0  0  0  0  0  0  0  0  0  0  0
   -7.8974    6.7397  -20.2286 N   0  0  0  0  0  0  0  0  0  0  0  0
   -7.1943    5.6750  -20.6459 C   0  0  0  0  0  0  0  0  0  0  0  0
   -1.3585    7.0010  -23.5960 C   0  0  2  0  0  0  0  0  0  0  0  0
   -1.6921    7.3949  -26.0261 C   0  0  0  0  0  0  0  0  0  0  0  0
   -1.2346    5.5894  -24.0375 C   0  0  0  0  0  0  0  0  0  0  0  0
   -3.6022    7.8070  -18.3092 C   0  0  0  0  0  0  0  0  0  0  0  0
   -2.9758    7.6076  -19.6591 C   0  0  0  0  0  0  0  0  0  0  0  0
   -1.5138    7.8155  -19.8179 C   0  0  0  0  0  0  0  0  0  0  0  0
    0.2384    7.7541  -21.3531 O   0  0  0  0  0  0  0  0  0  0  0  0
   -1.8426    7.2138  -22.2673 N   0  0  0  0  0  0  0  0  0  0  0  0
   -3.1922    7.0542  -21.9879 N   0  0  0  0  0  0  0  0  0  0  0  0
   -5.1842    7.0268  -20.5079 C   0  0  0  0  0  0  0  0  0  0  0  0
   -7.3030    7.9120  -19.9543 C   0  0  0  0  0  0  0  0  0  0  0  0
   -5.8122    5.8579  -20.7773 C   0  0  0  0  0  0  0  0  0  0  0  0
   -2.2503    7.7074  -24.6296 C   0  0  0  0  0  0  0  0  0  0  0  0
   -2.0794    6.0493  -26.3209 N   0  0  0  0  0  4  0  0  0  0  0  0
   -2.1936    5.2390  -25.1511 C   0  0  0  0  0  0  0  0  0  0  0  0
 11  1  1  0
  1 12  2  0
  1 13  1  0
 10  2  2  0
  2 14  1  0
  2 15  1  0
 15  3  2  0
  3 16  1  0
  4  5  1  0
 16  4  2  0
  5 17  2  0
  6  8  1  0
  6 13  1  1
  6 18  1  0
 18  7  1  0
  7 19  1  0
  8 20  1  0
 10  9  1  0
 10 11  1  0
 13 14  1  0
 15 17  1  0
 19 20  1  0
M  CHG  1  19   1
M  END
$$$$
