
     RDKit          3D

 20 22  0  0  0  0  0  0  0  0999 V2000
   -1.6260    6.9440  -20.2547 C   0  0  0  0  0  0  0  0  0  0  0  0
   -4.3381    7.4554  -20.5727 C   0  0  0  0  0  0  0  0  0  0  0  0
   -6.1025    8.3072  -22.0528 C   0  0  0  0  0  0  0  0  0  0  0  0
   -8.4147    8.0394  -21.5212 N   0  0  0  0  0  0  0  0  0  0  0  0
   -8.1461    7.4083  -20.3673 C   0  0  0  0  0  0  0  0  0  0  0  0
   -1.4798    6.0167  -22.5840 C   0  0  2  0  0  0  0  0  0  0  0  0
   -0.8669    6.1329  -24.9888 C   0  0  0  0  0  0  0  0  0  0  0  0
   -1.8279    4.6181  -22.9381 C   0  0  0  0  0  0  0  0  0  0  0  0
   -4.6797    8.3872  -18.3679 C   0  0  0  0  0  0  0  0  0  0  0  0
   -3.8119    7.7737  -19.4285 C   0  0  0  0  0  0  0  0  0  0  0  0
   -2.3711    7.5491  -19.1462 C   0  0  0  0  0  0  0  0  0  0  0  0
   -0.3840    6.7299  -20.0467 O   0  0  0  0  0  0  0  0  0  0  0  0
   -2.2081    6.6008  -21.5008 N   0  0  0  0  0  0  0  0  0  0  0  0
   -3.5632    6.8640  -21.6391 N   0  0  0  0  0  0  0  0  0  0  0  0
   -5.7822    7.6529  -20.8562 C   0  0  0  0  0  0  0  0  0  0  0  0
   -7.4351    8.4715  -22.3316 C   0  0  0  0  0  0  0  0  0  0  0  0
   -6.7917    7.2283  -20.0601 C   0  0  0  0  0  0  0  0  0  0  0  0
   -1.6377    6.8467  -23.8682 C   0  0  0  0  0  0  0  0  0  0  0  0
   -1.6702    5.0148  -25.3787 N   0  0  0  0  0  4  0  0  0  0  0  0
   -2.4593    4.5012  -24.3056 C   0  0  0  0  0  0  0  0  0  0  0  0
 11  1  1  0
  1 12  2  0
  1 13  1  0
 10  2  2  0
  2 14  1  0
  2 15  1  0
 15  3  2  0
  3 16  1  0
  4  5  1  0
 16  4  2  0
  5 17  2  0
  6  8  1  0
  6 13  1  1
  6 18  1  0
 18  7  1  0
  7 19  1  0
  8 20  1  0
 10  9  1  0
 10 11  1  0
 13 14  1  0
 15 17  1  0
 19 20  1  0
M  CHG  1  19   1
M  END
$$$$
