
     RDKit          3D

 20 22  0  0  0  0  0  0  0  0999 V2000
    3.8649    3.1803  -11.1468 C   0  0  0  0  0  0  0  0  0  0  0  0
    3.7107    5.3704  -12.8491 C   0  0  0  0  0  0  0  0  0  0  0  0
    2.3735    6.8223  -14.3096 C   0  0  0  0  0  0  0  0  0  0  0  0
    3.3932    8.4747  -15.6990 N   0  0  0  0  0  0  0  0  0  0  0  0
    4.6308    8.1496  -15.2933 C   0  0  0  0  0  0  0  0  0  0  0  0
    4.7452    1.7385  -13.0051 C   0  0  2  0  0  0  0  0  0  0  0  0
    6.6944    0.2439  -13.3774 C   0  0  0  0  0  0  0  0  0  0  0  0
    4.5218    1.4891  -14.4510 C   0  0  0  0  0  0  0  0  0  0  0  0
    2.8618    6.9165  -11.1953 C   0  0  0  0  0  0  0  0  0  0  0  0
    3.3401    5.5575  -11.6182 C   0  0  0  0  0  0  0  0  0  0  0  0
    3.3824    4.4601  -10.6183 C   0  0  0  0  0  0  0  0  0  0  0  0
    3.9094    2.2102  -10.3168 O   0  0  0  0  0  0  0  0  0  0  0  0
    4.2685    2.9851  -12.4915 N   0  0  0  0  0  0  0  0  0  0  0  0
    4.1837    4.0909  -13.3251 N   0  0  0  0  0  0  0  0  0  0  0  0
    3.6490    6.4540  -13.8623 C   0  0  0  0  0  0  0  0  0  0  0  0
    2.3084    7.8388  -15.2278 C   0  0  0  0  0  0  0  0  0  0  0  0
    4.7235    7.1140  -14.3553 C   0  0  0  0  0  0  0  0  0  0  0  0
    6.2544    1.5800  -12.7605 C   0  0  0  0  0  0  0  0  0  0  0  0
    6.7465    0.4531  -14.7919 N   0  0  0  0  0  4  0  0  0  0  0  0
    5.8089    1.4321  -15.2399 C   0  0  0  0  0  0  0  0  0  0  0  0
 11  1  1  0
  1 12  2  0
  1 13  1  0
 10  2  2  0
  2 14  1  0
  2 15  1  0
 15  3  2  0
  3 16  1  0
  4  5  1  0
 16  4  2  0
  5 17  2  0
  6  8  1  0
  6 13  1  6
  6 18  1  0
 18  7  1  0
  7 19  1  0
  8 20  1  0
 10  9  1  0
 10 11  1  0
 13 14  1  0
 15 17  1  0
 19 20  1  0
M  CHG  1  19   1
M  END
$$$$
