
     RDKit          3D

 20 22  0  0  0  0  0  0  0  0999 V2000
   -6.3770    5.4748  -21.0213 C   0  0  0  0  0  0  0  0  0  0  0  0
   -4.2104    7.1075  -20.4223 C   0  0  0  0  0  0  0  0  0  0  0  0
   -3.2683    9.2966  -19.8313 C   0  0  0  0  0  0  0  0  0  0  0  0
   -0.9112    9.6763  -19.8095 N   0  0  0  0  0  0  0  0  0  0  0  0
   -0.6369    8.4203  -20.1956 C   0  0  0  0  0  0  0  0  0  0  0  0
   -5.4838    5.0573  -23.3310 C   0  0  2  0  0  0  0  0  0  0  0  0
   -4.2769    3.9073  -25.1730 C   0  0  0  0  0  0  0  0  0  0  0  0
   -5.9536    5.9257  -24.4391 C   0  0  0  0  0  0  0  0  0  0  0  0
   -4.9007    7.6247  -18.1635 C   0  0  0  0  0  0  0  0  0  0  0  0
   -5.0956    6.9414  -19.4862 C   0  0  0  0  0  0  0  0  0  0  0  0
   -6.2937    6.0880  -19.6919 C   0  0  0  0  0  0  0  0  0  0  0  0
   -7.3979    4.7381  -21.2377 O   0  0  0  0  0  0  0  0  0  0  0  0
   -5.4056    5.6606  -22.0368 N   0  0  0  0  0  0  0  0  0  0  0  0
   -4.3320    6.4794  -21.7177 N   0  0  0  0  0  0  0  0  0  0  0  0
   -3.0222    7.9781  -20.2354 C   0  0  0  0  0  0  0  0  0  0  0  0
   -2.1737   10.0988  -19.6340 C   0  0  0  0  0  0  0  0  0  0  0  0
   -1.7387    7.5813  -20.4035 C   0  0  0  0  0  0  0  0  0  0  0  0
   -4.1199    4.4947  -23.7624 C   0  0  0  0  0  0  0  0  0  0  0  0
   -4.3208    5.0221  -26.0690 N   0  0  0  0  0  4  0  0  0  0  0  0
   -4.8807    6.1904  -25.4693 C   0  0  0  0  0  0  0  0  0  0  0  0
 11  1  1  0
  1 12  2  0
  1 13  1  0
 10  2  2  0
  2 14  1  0
  2 15  1  0
 15  3  2  0
  3 16  1  0
  4  5  1  0
 16  4  2  0
  5 17  2  0
  6  8  1  0
  6 13  1  1
  6 18  1  0
 18  7  1  0
  7 19  1  0
  8 20  1  0
 10  9  1  0
 10 11  1  0
 13 14  1  0
 15 17  1  0
 19 20  1  0
M  CHG  1  19   1
M  END
$$$$
