
     RDKit          3D

 20 22  0  0  0  0  0  0  0  0999 V2000
   -5.9227    4.9936  -20.9047 C   0  0  0  0  0  0  0  0  0  0  0  0
   -4.2033    7.1383  -20.5023 C   0  0  0  0  0  0  0  0  0  0  0  0
   -1.8968    7.9803  -20.4876 C   0  0  0  0  0  0  0  0  0  0  0  0
   -1.4213   10.3149  -20.3321 N   0  0  0  0  0  0  0  0  0  0  0  0
   -2.7210   10.6443  -20.2674 C   0  0  0  0  0  0  0  0  0  0  0  0
   -5.0955    4.7115  -23.2591 C   0  0  2  0  0  0  0  0  0  0  0  0
   -3.8741    4.2489  -25.3725 C   0  0  0  0  0  0  0  0  0  0  0  0
   -6.1860    5.0819  -24.1954 C   0  0  0  0  0  0  0  0  0  0  0  0
   -4.8626    7.5650  -18.2156 C   0  0  0  0  0  0  0  0  0  0  0  0
   -4.9597    6.7980  -19.5026 C   0  0  0  0  0  0  0  0  0  0  0  0
   -5.9153    5.6652  -19.6013 C   0  0  0  0  0  0  0  0  0  0  0  0
   -6.7371    4.0174  -21.0295 O   0  0  0  0  0  0  0  0  0  0  0  0
   -5.0928    5.3709  -21.9902 N   0  0  0  0  0  0  0  0  0  0  0  0
   -4.2419    6.4440  -21.7688 N   0  0  0  0  0  0  0  0  0  0  0  0
   -3.2627    8.2844  -20.4222 C   0  0  0  0  0  0  0  0  0  0  0  0
   -1.0237    9.0367  -20.4380 C   0  0  0  0  0  0  0  0  0  0  0  0
   -3.6327    9.5825  -20.3163 C   0  0  0  0  0  0  0  0  0  0  0  0
   -3.7744    4.9482  -24.0085 C   0  0  0  0  0  0  0  0  0  0  0  0
   -4.7115    5.0755  -26.1866 N   0  0  0  0  0  4  0  0  0  0  0  0
   -5.6812    5.7969  -25.4269 C   0  0  0  0  0  0  0  0  0  0  0  0
 11  1  1  0
  1 12  2  0
  1 13  1  0
 10  2  2  0
  2 14  1  0
  2 15  1  0
 15  3  2  0
  3 16  1  0
  4  5  1  0
 16  4  2  0
  5 17  2  0
  6  8  1  0
  6 13  1  1
  6 18  1  0
 18  7  1  0
  7 19  1  0
  8 20  1  0
 10  9  1  0
 10 11  1  0
 13 14  1  0
 15 17  1  0
 19 20  1  0
M  CHG  1  19   1
M  END
$$$$
