
     RDKit          3D

 20 22  0  0  0  0  0  0  0  0999 V2000
   -5.0438    4.0746  -21.4369 C   0  0  0  0  0  0  0  0  0  0  0  0
   -4.6418    6.7495  -20.8030 C   0  0  0  0  0  0  0  0  0  0  0  0
   -5.4190    8.8789  -19.8592 C   0  0  0  0  0  0  0  0  0  0  0  0
   -4.1552   10.8893  -20.1074 N   0  0  0  0  0  0  0  0  0  0  0  0
   -3.1946   10.2779  -20.8182 C   0  0  0  0  0  0  0  0  0  0  0  0
   -4.7057    4.5539  -23.8788 C   0  0  2  0  0  0  0  0  0  0  0  0
   -3.6258    4.8658  -26.0943 C   0  0  0  0  0  0  0  0  0  0  0  0
   -5.9478    4.6963  -24.6788 C   0  0  0  0  0  0  0  0  0  0  0  0
   -4.9296    6.4896  -18.4165 C   0  0  0  0  0  0  0  0  0  0  0  0
   -4.8837    5.9427  -19.8140 C   0  0  0  0  0  0  0  0  0  0  0  0
   -5.1114    4.4914  -20.0327 C   0  0  0  0  0  0  0  0  0  0  0  0
   -5.2408    2.8333  -21.6650 O   0  0  0  0  0  0  0  0  0  0  0  0
   -4.7781    4.9617  -22.5101 N   0  0  0  0  0  0  0  0  0  0  0  0
   -4.5806    6.2928  -22.1724 N   0  0  0  0  0  0  0  0  0  0  0  0
   -4.4373    8.2058  -20.5979 C   0  0  0  0  0  0  0  0  0  0  0  0
   -5.2236   10.2195  -19.6461 C   0  0  0  0  0  0  0  0  0  0  0  0
   -3.3713    8.9081  -21.0492 C   0  0  0  0  0  0  0  0  0  0  0  0
   -3.6093    5.3269  -24.6293 C   0  0  0  0  0  0  0  0  0  0  0  0
   -4.7588    5.4956  -26.7003 N   0  0  0  0  0  4  0  0  0  0  0  0
   -5.8214    5.7276  -25.7756 C   0  0  0  0  0  0  0  0  0  0  0  0
 11  1  1  0
  1 12  2  0
  1 13  1  0
 10  2  2  0
  2 14  1  0
  2 15  1  0
 15  3  2  0
  3 16  1  0
  4  5  1  0
 16  4  2  0
  5 17  2  0
  6  8  1  0
  6 13  1  1
  6 18  1  0
 18  7  1  0
  7 19  1  0
  8 20  1  0
 10  9  1  0
 10 11  1  0
 13 14  1  0
 15 17  1  0
 19 20  1  0
M  CHG  1  19   1
M  END
$$$$
