
     RDKit          3D

 24 25  0  0  0  0  0  0  0  0999 V2000
   25.6168   23.6631   37.0184 O   0  0  0  0  0  0  0  0  0  0  0  0
   24.7560   24.6653   36.5791 C   0  0  2  0  0  0  0  0  0  0  0  0
   23.6356   24.0831   35.7988 C   0  0  1  0  0  0  0  0  0  0  0  0
   22.4255   24.7289   36.0776 O   0  0  0  0  0  0  0  0  0  0  0  0
   23.8786   23.9827   34.3284 C   0  0  2  0  0  0  0  0  0  0  0  0
   24.2370   22.6979   33.9184 O   0  0  0  0  0  0  0  0  0  0  0  0
   24.8650   24.9853   33.8126 C   0  0  1  0  0  0  0  0  0  0  0  0
   24.3778   25.5699   32.4779 C   0  0  0  0  0  0  0  0  0  0  0  0
   23.4625   24.6313   31.9771 O   0  0  0  0  0  0  0  0  0  0  0  0
   24.9792   26.0481   34.6720 O   0  0  0  0  0  0  0  0  0  0  0  0
   25.5092   25.7750   35.9076 C   0  0  1  0  0  0  0  0  0  0  0  0
   25.4521   27.3151   36.8639 S   0  0  0  0  0  0  0  0  0  0  0  0
   26.8083   28.4274   36.4511 C   0  0  1  0  0  0  0  0  0  0  0  0
   26.3126   29.6807   35.8076 C   0  0  2  0  0  0  0  0  0  0  0  0
   27.2274   30.1411   34.8823 O   0  0  0  0  0  0  0  0  0  0  0  0
   26.6377   30.4137   33.6529 C   0  0  0  0  0  0  0  0  0  0  0  0
   25.8952   30.6632   36.6967 O   0  0  0  0  0  0  0  0  0  0  0  0
   27.5843   28.7254   37.7065 C   0  0  1  0  0  0  0  0  0  0  0  0
   28.7365   27.9590   37.8017 O   0  0  0  0  0  0  0  0  0  0  0  0
   27.9907   30.1789   37.7983 C   0  0  2  0  0  0  0  0  0  0  0  0
   28.4163   30.3732   39.1336 O   0  0  0  0  0  0  0  0  0  0  0  0
   26.8525   31.1145   37.5609 C   0  0  1  0  0  0  0  0  0  0  0  0
   27.4269   32.4712   37.1614 C   0  0  0  0  0  0  0  0  0  0  0  0
   28.6521   32.3357   36.5170 O   0  0  0  0  0  0  0  0  0  0  0  0
  2  1  1  6
  2  3  1  0
  2 11  1  0
  3  4  1  6
  3  5  1  0
  5  6  1  1
  5  7  1  0
  7  8  1  6
  7 10  1  0
  8  9  1  0
 10 11  1  0
 11 12  1  1
 13 12  1  1
 13 14  1  0
 13 18  1  0
 14 15  1  1
 14 17  1  0
 15 16  1  0
 17 22  1  0
 18 19  1  6
 18 20  1  0
 20 21  1  1
 20 22  1  0
 22 23  1  6
 23 24  1  0
M  END
$$$$
