
     RDKit          3D

 24 25  0  0  0  0  0  0  0  0999 V2000
   25.9241   23.5240   37.3177 O   0  0  0  0  0  0  0  0  0  0  0  0
   24.9205   24.4266   36.9764 C   0  0  2  0  0  0  0  0  0  0  0  0
   23.7658   23.7162   36.3723 C   0  0  1  0  0  0  0  0  0  0  0  0
   22.5483   24.2595   36.7988 O   0  0  0  0  0  0  0  0  0  0  0  0
   23.8169   23.5832   34.8855 C   0  0  2  0  0  0  0  0  0  0  0  0
   24.2375   22.3218   34.4620 O   0  0  0  0  0  0  0  0  0  0  0  0
   24.6250   24.6512   34.2142 C   0  0  1  0  0  0  0  0  0  0  0  0
   23.9092   25.1386   32.9451 C   0  0  0  0  0  0  0  0  0  0  0  0
   24.4298   26.4180   32.6970 O   0  0  0  0  0  0  0  0  0  0  0  0
   24.7524   25.7515   35.0231 O   0  0  0  0  0  0  0  0  0  0  0  0
   25.4675   25.5742   36.1804 C   0  0  1  0  0  0  0  0  0  0  0  0
   25.3935   27.1376   37.0970 S   0  0  0  0  0  0  0  0  0  0  0  0
   26.7157   28.2685   36.6284 C   0  0  1  0  0  0  0  0  0  0  0  0
   26.1782   29.4991   35.9745 C   0  0  2  0  0  0  0  0  0  0  0  0
   27.0595   29.9597   35.0174 O   0  0  0  0  0  0  0  0  0  0  0  0
   26.4138   30.3182   33.8392 C   0  0  0  0  0  0  0  0  0  0  0  0
   25.7635   30.4900   36.8554 O   0  0  0  0  0  0  0  0  0  0  0  0
   27.5170   28.6063   37.8576 C   0  0  1  0  0  0  0  0  0  0  0  0
   28.6867   27.8650   37.9375 O   0  0  0  0  0  0  0  0  0  0  0  0
   27.8958   30.0691   37.9115 C   0  0  2  0  0  0  0  0  0  0  0  0
   28.3511   30.2977   39.2314 O   0  0  0  0  0  0  0  0  0  0  0  0
   26.7330   30.9769   37.6859 C   0  0  1  0  0  0  0  0  0  0  0  0
   27.2691   32.3370   37.2463 C   0  0  0  0  0  0  0  0  0  0  0  0
   28.4068   32.2048   36.4570 O   0  0  0  0  0  0  0  0  0  0  0  0
  2  1  1  6
  2  3  1  0
  2 11  1  0
  3  4  1  6
  3  5  1  0
  5  6  1  1
  5  7  1  0
  7  8  1  6
  7 10  1  0
  8  9  1  0
 10 11  1  0
 11 12  1  1
 13 12  1  1
 13 14  1  0
 13 18  1  0
 14 15  1  6
 14 17  1  0
 15 16  1  0
 17 22  1  0
 18 19  1  6
 18 20  1  0
 20 21  1  1
 20 22  1  0
 22 23  1  6
 23 24  1  0
M  END
$$$$
