
     RDKit          3D

 24 25  0  0  0  0  0  0  0  0999 V2000
   25.0721   23.8064   37.5392 O   0  0  0  0  0  0  0  0  0  0  0  0
   24.3493   24.8102   36.9001 C   0  0  2  0  0  0  0  0  0  0  0  0
   23.2889   24.2225   36.0439 C   0  0  1  0  0  0  0  0  0  0  0  0
   22.1072   24.9704   36.1038 O   0  0  0  0  0  0  0  0  0  0  0  0
   23.6973   23.9530   34.6327 C   0  0  2  0  0  0  0  0  0  0  0  0
   24.0026   22.6119   34.3968 O   0  0  0  0  0  0  0  0  0  0  0  0
   24.8122   24.8305   34.1519 C   0  0  1  0  0  0  0  0  0  0  0  0
   24.5343   25.3019   32.7162 C   0  0  0  0  0  0  0  0  0  0  0  0
   23.4053   26.1299   32.8126 O   0  0  0  0  0  0  0  0  0  0  0  0
   24.9042   25.9681   34.9126 O   0  0  0  0  0  0  0  0  0  0  0  0
   25.2602   25.7927   36.2258 C   0  0  1  0  0  0  0  0  0  0  0  0
   25.2076   27.4251   37.0146 S   0  0  0  0  0  0  0  0  0  0  0  0
   26.6806   28.4020   36.6642 C   0  0  1  0  0  0  0  0  0  0  0  0
   26.3473   29.6412   35.9000 C   0  0  2  0  0  0  0  0  0  0  0  0
   27.3756   29.9669   35.0390 O   0  0  0  0  0  0  0  0  0  0  0  0
   26.9086   30.3639   33.7909 C   0  0  0  0  0  0  0  0  0  0  0  0
   25.9321   30.7112   36.6827 O   0  0  0  0  0  0  0  0  0  0  0  0
   27.3620   28.7277   37.9668 C   0  0  1  0  0  0  0  0  0  0  0  0
   28.4355   27.8860   38.2185 O   0  0  0  0  0  0  0  0  0  0  0  0
   27.8743   30.1497   38.0064 C   0  0  2  0  0  0  0  0  0  0  0  0
   28.1923   30.4039   39.3614 O   0  0  0  0  0  0  0  0  0  0  0  0
   26.8412   31.1488   37.6042 C   0  0  1  0  0  0  0  0  0  0  0  0
   27.5565   32.4281   37.1776 C   0  0  0  0  0  0  0  0  0  0  0  0
   28.8090   32.1552   36.6376 O   0  0  0  0  0  0  0  0  0  0  0  0
  2  1  1  6
  2  3  1  0
  2 11  1  0
  3  4  1  6
  3  5  1  0
  5  6  1  1
  5  7  1  0
  7  8  1  6
  7 10  1  0
  8  9  1  0
 10 11  1  0
 11 12  1  1
 13 12  1  1
 13 14  1  0
 13 18  1  0
 14 15  1  1
 14 17  1  0
 15 16  1  0
 17 22  1  0
 18 19  1  6
 18 20  1  0
 20 21  1  1
 20 22  1  0
 22 23  1  6
 23 24  1  0
M  END
$$$$
