
     RDKit          3D

 24 25  0  0  0  0  0  0  0  0999 V2000
   25.4644   23.2467   37.4441 O   0  0  0  0  0  0  0  0  0  0  0  0
   24.6182   24.2366   36.9516 C   0  0  2  0  0  0  0  0  0  0  0  0
   23.5083   23.6319   36.1734 C   0  0  1  0  0  0  0  0  0  0  0  0
   22.2976   24.2949   36.4054 O   0  0  0  0  0  0  0  0  0  0  0  0
   23.7772   23.4744   34.7127 C   0  0  2  0  0  0  0  0  0  0  0  0
   24.1346   22.1729   34.3581 O   0  0  0  0  0  0  0  0  0  0  0  0
   24.7793   24.4509   34.1775 C   0  0  1  0  0  0  0  0  0  0  0  0
   24.3202   24.9874   32.8129 C   0  0  0  0  0  0  0  0  0  0  0  0
   23.5724   26.1390   33.1027 O   0  0  0  0  0  0  0  0  0  0  0  0
   24.8850   25.5449   34.9981 O   0  0  0  0  0  0  0  0  0  0  0  0
   25.3907   25.3157   36.2526 C   0  0  1  0  0  0  0  0  0  0  0  0
   25.3265   26.8912   37.1489 S   0  0  0  0  0  0  0  0  0  0  0  0
   26.6790   27.9920   36.6952 C   0  0  1  0  0  0  0  0  0  0  0  0
   26.1757   29.2424   36.0520 C   0  0  2  0  0  0  0  0  0  0  0  0
   27.0716   29.6893   35.1019 O   0  0  0  0  0  0  0  0  0  0  0  0
   26.4323   30.2156   33.9849 C   0  0  0  0  0  0  0  0  0  0  0  0
   25.7842   30.2351   36.9415 O   0  0  0  0  0  0  0  0  0  0  0  0
   27.4851   28.2966   37.9299 C   0  0  1  0  0  0  0  0  0  0  0  0
   28.6349   27.5245   38.0057 O   0  0  0  0  0  0  0  0  0  0  0  0
   27.9016   29.7485   37.9993 C   0  0  2  0  0  0  0  0  0  0  0  0
   28.3586   29.9522   39.3227 O   0  0  0  0  0  0  0  0  0  0  0  0
   26.7635   30.6885   37.7795 C   0  0  1  0  0  0  0  0  0  0  0  0
   27.3361   32.0383   37.3548 C   0  0  0  0  0  0  0  0  0  0  0  0
   28.6988   31.9525   37.0891 O   0  0  0  0  0  0  0  0  0  0  0  0
  2  1  1  6
  2  3  1  0
  2 11  1  0
  3  4  1  6
  3  5  1  0
  5  6  1  1
  5  7  1  0
  7  8  1  6
  7 10  1  0
  8  9  1  0
 10 11  1  0
 11 12  1  1
 13 12  1  1
 13 14  1  0
 13 18  1  0
 14 15  1  6
 14 17  1  0
 15 16  1  0
 17 22  1  0
 18 19  1  6
 18 20  1  0
 20 21  1  1
 20 22  1  0
 22 23  1  6
 23 24  1  0
M  END
$$$$
