
     RDKit          3D

 24 25  0  0  0  0  0  0  0  0999 V2000
   23.2478   23.3112   38.2672 O   0  0  0  0  0  0  0  0  0  0  0  0
   24.5255   23.5121   37.7518 C   0  0  2  0  0  0  0  0  0  0  0  0
   25.5476   22.9211   38.6512 C   0  0  1  0  0  0  0  0  0  0  0  0
   26.5776   22.3100   37.9266 O   0  0  0  0  0  0  0  0  0  0  0  0
   26.0838   23.8503   39.6905 C   0  0  2  0  0  0  0  0  0  0  0  0
   25.5141   23.6528   40.9490 O   0  0  0  0  0  0  0  0  0  0  0  0
   26.0002   25.2955   39.3049 C   0  0  1  0  0  0  0  0  0  0  0  0
   27.2918   26.0260   39.7035 C   0  0  0  0  0  0  0  0  0  0  0  0
   28.3187   25.3585   39.0184 O   0  0  0  0  0  0  0  0  0  0  0  0
   25.8908   25.4350   37.9449 O   0  0  0  0  0  0  0  0  0  0  0  0
   24.7417   24.9479   37.3754 C   0  0  1  0  0  0  0  0  0  0  0  0
   24.9016   25.1668   35.5820 S   0  0  0  0  0  0  0  0  0  0  0  0
   24.2992   26.7737   35.0327 C   0  0  1  0  0  0  0  0  0  0  0  0
   25.3448   27.5196   34.2705 C   0  0  2  0  0  0  0  0  0  0  0  0
   25.2231   28.8771   34.4887 O   0  0  0  0  0  0  0  0  0  0  0  0
   26.4098   29.4441   34.9399 C   0  0  0  0  0  0  0  0  0  0  0  0
   25.4272   27.1894   32.9237 O   0  0  0  0  0  0  0  0  0  0  0  0
   23.0605   26.5642   34.2027 C   0  0  1  0  0  0  0  0  0  0  0  0
   21.9012   26.7952   34.9285 O   0  0  0  0  0  0  0  0  0  0  0  0
   23.0268   27.4611   32.9858 C   0  0  2  0  0  0  0  0  0  0  0  0
   22.0018   26.9446   32.1586 O   0  0  0  0  0  0  0  0  0  0  0  0
   24.2924   27.4136   32.1964 C   0  0  1  0  0  0  0  0  0  0  0  0
   24.3690   28.6772   31.3432 C   0  0  0  0  0  0  0  0  0  0  0  0
   23.6287   29.7141   31.9015 O   0  0  0  0  0  0  0  0  0  0  0  0
  2  1  1  1
  2  3  1  0
  2 11  1  0
  3  4  1  6
  3  5  1  0
  5  6  1  1
  5  7  1  0
  7  8  1  6
  7 10  1  0
  8  9  1  0
 10 11  1  0
 11 12  1  6
 13 12  1  6
 13 14  1  0
 13 18  1  0
 14 15  1  6
 14 17  1  0
 15 16  1  0
 17 22  1  0
 18 19  1  1
 18 20  1  0
 20 21  1  6
 20 22  1  0
 22 23  1  1
 23 24  1  0
M  END
$$$$
