
     RDKit          3D

 24 25  0  0  0  0  0  0  0  0999 V2000
   25.6423   23.5465   37.3829 O   0  0  0  0  0  0  0  0  0  0  0  0
   24.7175   24.5313   37.0459 C   0  0  2  0  0  0  0  0  0  0  0  0
   23.5461   23.9313   36.3596 C   0  0  1  0  0  0  0  0  0  0  0  0
   22.3497   24.5364   36.7620 O   0  0  0  0  0  0  0  0  0  0  0  0
   23.6548   23.8655   34.8714 C   0  0  2  0  0  0  0  0  0  0  0  0
   24.0088   22.5995   34.4030 O   0  0  0  0  0  0  0  0  0  0  0  0
   24.5617   24.9058   34.2886 C   0  0  1  0  0  0  0  0  0  0  0  0
   23.9375   25.5006   33.0169 C   0  0  0  0  0  0  0  0  0  0  0  0
   24.6584   24.9354   31.9538 O   0  0  0  0  0  0  0  0  0  0  0  0
   24.7258   25.9553   35.1562 O   0  0  0  0  0  0  0  0  0  0  0  0
   25.3750   25.6747   36.3318 C   0  0  1  0  0  0  0  0  0  0  0  0
   25.3645   27.1945   37.3218 S   0  0  0  0  0  0  0  0  0  0  0  0
   26.6588   28.3447   36.8231 C   0  0  1  0  0  0  0  0  0  0  0  0
   26.0936   29.5319   36.1147 C   0  0  2  0  0  0  0  0  0  0  0  0
   26.9728   29.9802   35.1498 O   0  0  0  0  0  0  0  0  0  0  0  0
   26.3211   30.3529   33.9793 C   0  0  0  0  0  0  0  0  0  0  0  0
   25.6395   30.5442   36.9508 O   0  0  0  0  0  0  0  0  0  0  0  0
   27.4349   28.7543   38.0466 C   0  0  1  0  0  0  0  0  0  0  0  0
   28.6247   28.0518   38.1688 O   0  0  0  0  0  0  0  0  0  0  0  0
   27.7702   30.2287   38.0463 C   0  0  2  0  0  0  0  0  0  0  0  0
   28.2025   30.5227   39.3610 O   0  0  0  0  0  0  0  0  0  0  0  0
   26.5843   31.0921   37.7719 C   0  0  1  0  0  0  0  0  0  0  0  0
   27.0858   32.4490   37.2843 C   0  0  0  0  0  0  0  0  0  0  0  0
   28.3253   32.3402   36.6625 O   0  0  0  0  0  0  0  0  0  0  0  0
  2  1  1  6
  2  3  1  0
  2 11  1  0
  3  4  1  6
  3  5  1  0
  5  6  1  1
  5  7  1  0
  7  8  1  6
  7 10  1  0
  8  9  1  0
 10 11  1  0
 11 12  1  1
 13 12  1  1
 13 14  1  0
 13 18  1  0
 14 15  1  6
 14 17  1  0
 15 16  1  0
 17 22  1  0
 18 19  1  6
 18 20  1  0
 20 21  1  1
 20 22  1  0
 22 23  1  6
 23 24  1  0
M  END
$$$$
