
     RDKit          3D

 24 25  0  0  0  0  0  0  0  0999 V2000
   25.7484   23.7444   37.1762 O   0  0  0  0  0  0  0  0  0  0  0  0
   24.7370   24.6537   36.8784 C   0  0  2  0  0  0  0  0  0  0  0  0
   23.5669   23.9555   36.2899 C   0  0  1  0  0  0  0  0  0  0  0  0
   22.3609   24.4902   36.7579 O   0  0  0  0  0  0  0  0  0  0  0  0
   23.5802   23.8521   34.7999 C   0  0  2  0  0  0  0  0  0  0  0  0
   23.9892   22.5993   34.3408 O   0  0  0  0  0  0  0  0  0  0  0  0
   24.3716   24.9332   34.1297 C   0  0  1  0  0  0  0  0  0  0  0  0
   23.6240   25.4458   32.8891 C   0  0  0  0  0  0  0  0  0  0  0  0
   24.6280   25.8256   31.9850 O   0  0  0  0  0  0  0  0  0  0  0  0
   24.5201   26.0172   34.9568 O   0  0  0  0  0  0  0  0  0  0  0  0
   25.2642   25.8169   36.0918 C   0  0  1  0  0  0  0  0  0  0  0  0
   25.2143   27.3617   37.0409 S   0  0  0  0  0  0  0  0  0  0  0  0
   26.5964   28.4498   36.6498 C   0  0  1  0  0  0  0  0  0  0  0  0
   26.1321   29.7167   36.0094 C   0  0  2  0  0  0  0  0  0  0  0  0
   27.0655   30.1650   35.0969 O   0  0  0  0  0  0  0  0  0  0  0  0
   26.4753   30.8219   34.0228 C   0  0  0  0  0  0  0  0  0  0  0  0
   25.7245   30.7015   36.9005 O   0  0  0  0  0  0  0  0  0  0  0  0
   27.3645   28.7245   37.9153 C   0  0  1  0  0  0  0  0  0  0  0  0
   28.5005   27.9350   38.0176 O   0  0  0  0  0  0  0  0  0  0  0  0
   27.7982   30.1691   38.0210 C   0  0  2  0  0  0  0  0  0  0  0  0
   28.2132   30.3465   39.3619 O   0  0  0  0  0  0  0  0  0  0  0  0
   26.6812   31.1283   37.7777 C   0  0  1  0  0  0  0  0  0  0  0  0
   27.2862   32.4761   37.3933 C   0  0  0  0  0  0  0  0  0  0  0  0
   28.6033   32.5853   37.8270 O   0  0  0  0  0  0  0  0  0  0  0  0
  2  1  1  6
  2  3  1  0
  2 11  1  0
  3  4  1  6
  3  5  1  0
  5  6  1  1
  5  7  1  0
  7  8  1  6
  7 10  1  0
  8  9  1  0
 10 11  1  0
 11 12  1  1
 13 12  1  1
 13 14  1  0
 13 18  1  0
 14 15  1  1
 14 17  1  0
 15 16  1  0
 17 22  1  0
 18 19  1  6
 18 20  1  0
 20 21  1  1
 20 22  1  0
 22 23  1  6
 23 24  1  0
M  END
$$$$
