
     RDKit          3D

 24 25  0  0  0  0  0  0  0  0999 V2000
   25.3989   23.9634   37.3879 O   0  0  0  0  0  0  0  0  0  0  0  0
   24.4622   24.8881   36.9341 C   0  0  2  0  0  0  0  0  0  0  0  0
   23.3047   24.1948   36.3157 C   0  0  1  0  0  0  0  0  0  0  0  0
   22.0967   24.8238   36.6389 O   0  0  0  0  0  0  0  0  0  0  0  0
   23.4249   23.9587   34.8457 C   0  0  2  0  0  0  0  0  0  0  0  0
   23.8007   22.6526   34.5291 O   0  0  0  0  0  0  0  0  0  0  0  0
   24.3204   24.9384   34.1512 C   0  0  1  0  0  0  0  0  0  0  0  0
   23.6966   25.3723   32.8158 C   0  0  0  0  0  0  0  0  0  0  0  0
   23.8382   26.7681   32.7796 O   0  0  0  0  0  0  0  0  0  0  0  0
   24.4630   26.0837   34.8922 O   0  0  0  0  0  0  0  0  0  0  0  0
   25.1078   25.9512   36.0958 C   0  0  1  0  0  0  0  0  0  0  0  0
   25.0680   27.5750   36.9030 S   0  0  0  0  0  0  0  0  0  0  0  0
   26.5090   28.5771   36.4952 C   0  0  1  0  0  0  0  0  0  0  0  0
   26.1290   29.7891   35.7094 C   0  0  2  0  0  0  0  0  0  0  0  0
   27.1296   30.1175   34.8173 O   0  0  0  0  0  0  0  0  0  0  0  0
   26.6469   30.2755   33.5228 C   0  0  0  0  0  0  0  0  0  0  0  0
   25.7063   30.8680   36.4756 O   0  0  0  0  0  0  0  0  0  0  0  0
   27.2118   28.9505   37.7735 C   0  0  1  0  0  0  0  0  0  0  0  0
   28.3104   28.1405   38.0203 O   0  0  0  0  0  0  0  0  0  0  0  0
   27.6907   30.3846   37.7670 C   0  0  2  0  0  0  0  0  0  0  0  0
   28.0332   30.6792   39.1078 O   0  0  0  0  0  0  0  0  0  0  0  0
   26.6252   31.3491   37.3651 C   0  0  1  0  0  0  0  0  0  0  0  0
   27.3000   32.6339   36.8915 C   0  0  0  0  0  0  0  0  0  0  0  0
   26.7380   33.0972   35.7064 O   0  0  0  0  0  0  0  0  0  0  0  0
  2  1  1  6
  2  3  1  0
  2 11  1  0
  3  4  1  6
  3  5  1  0
  5  6  1  1
  5  7  1  0
  7  8  1  6
  7 10  1  0
  8  9  1  0
 10 11  1  0
 11 12  1  1
 13 12  1  1
 13 14  1  0
 13 18  1  0
 14 15  1  1
 14 17  1  0
 15 16  1  0
 17 22  1  0
 18 19  1  6
 18 20  1  0
 20 21  1  1
 20 22  1  0
 22 23  1  6
 23 24  1  0
M  END
$$$$
