
     RDKit          3D

 24 25  0  0  0  0  0  0  0  0999 V2000
   25.9852   23.4789   36.9357 O   0  0  0  0  0  0  0  0  0  0  0  0
   24.9343   24.3728   36.7485 C   0  0  2  0  0  0  0  0  0  0  0  0
   23.7362   23.6656   36.2314 C   0  0  1  0  0  0  0  0  0  0  0  0
   22.5602   24.1568   36.8102 O   0  0  0  0  0  0  0  0  0  0  0  0
   23.6332   23.6087   34.7424 C   0  0  2  0  0  0  0  0  0  0  0  0
   24.0309   22.3808   34.2117 O   0  0  0  0  0  0  0  0  0  0  0  0
   24.3458   24.7285   34.0477 C   0  0  1  0  0  0  0  0  0  0  0  0
   23.4913   25.2614   32.8873 C   0  0  0  0  0  0  0  0  0  0  0  0
   24.3726   25.3697   31.8005 O   0  0  0  0  0  0  0  0  0  0  0  0
   24.5365   25.7896   34.8956 O   0  0  0  0  0  0  0  0  0  0  0  0
   25.3726   25.5719   35.9613 C   0  0  1  0  0  0  0  0  0  0  0  0
   25.3656   27.0850   36.9615 S   0  0  0  0  0  0  0  0  0  0  0  0
   26.6688   28.2312   36.4771 C   0  0  1  0  0  0  0  0  0  0  0  0
   26.1088   29.4577   35.8345 C   0  0  2  0  0  0  0  0  0  0  0  0
   26.9714   29.9302   34.8661 O   0  0  0  0  0  0  0  0  0  0  0  0
   26.3041   30.2918   33.7009 C   0  0  0  0  0  0  0  0  0  0  0  0
   25.6964   30.4418   36.7240 O   0  0  0  0  0  0  0  0  0  0  0  0
   27.4841   28.5742   37.6956 C   0  0  1  0  0  0  0  0  0  0  0  0
   28.6627   27.8453   37.7566 O   0  0  0  0  0  0  0  0  0  0  0  0
   27.8480   30.0408   37.7482 C   0  0  2  0  0  0  0  0  0  0  0  0
   28.3199   30.2708   39.0620 O   0  0  0  0  0  0  0  0  0  0  0  0
   26.6726   30.9368   37.5419 C   0  0  1  0  0  0  0  0  0  0  0  0
   27.1878   32.3037   37.0984 C   0  0  0  0  0  0  0  0  0  0  0  0
   28.3735   32.1922   36.3796 O   0  0  0  0  0  0  0  0  0  0  0  0
  2  1  1  6
  2  3  1  0
  2 11  1  0
  3  4  1  1
  3  5  1  0
  5  6  1  6
  5  7  1  0
  7  8  1  6
  7 10  1  0
  8  9  1  0
 10 11  1  0
 11 12  1  1
 13 12  1  1
 13 14  1  0
 13 18  1  0
 14 15  1  6
 14 17  1  0
 15 16  1  0
 17 22  1  0
 18 19  1  6
 18 20  1  0
 20 21  1  1
 20 22  1  0
 22 23  1  6
 23 24  1  0
M  END
$$$$
