
     RDKit          3D

 24 25  0  0  0  0  0  0  0  0999 V2000
   25.9050   23.7958   37.1416 O   0  0  0  0  0  0  0  0  0  0  0  0
   24.8529   24.6738   36.8956 C   0  0  2  0  0  0  0  0  0  0  0  0
   23.6666   23.9361   36.3942 C   0  0  1  0  0  0  0  0  0  0  0  0
   22.4792   24.4476   36.9306 O   0  0  0  0  0  0  0  0  0  0  0  0
   23.5875   23.8079   34.9082 C   0  0  2  0  0  0  0  0  0  0  0  0
   23.9995   22.5584   34.4429 O   0  0  0  0  0  0  0  0  0  0  0  0
   24.3054   24.8974   34.1721 C   0  0  1  0  0  0  0  0  0  0  0  0
   23.4668   25.3696   32.9745 C   0  0  0  0  0  0  0  0  0  0  0  0
   24.3640   25.4280   31.8969 O   0  0  0  0  0  0  0  0  0  0  0  0
   24.4775   25.9986   34.9714 O   0  0  0  0  0  0  0  0  0  0  0  0
   25.2977   25.8366   36.0591 C   0  0  1  0  0  0  0  0  0  0  0  0
   25.2675   27.3955   36.9858 S   0  0  0  0  0  0  0  0  0  0  0  0
   26.6116   28.4985   36.5131 C   0  0  1  0  0  0  0  0  0  0  0  0
   26.1065   29.6888   35.7656 C   0  0  2  0  0  0  0  0  0  0  0  0
   27.0310   30.0941   34.8243 O   0  0  0  0  0  0  0  0  0  0  0  0
   26.4838   30.1638   33.5479 C   0  0  0  0  0  0  0  0  0  0  0  0
   25.6542   30.7286   36.5682 O   0  0  0  0  0  0  0  0  0  0  0  0
   27.3572   28.9072   37.7557 C   0  0  1  0  0  0  0  0  0  0  0  0
   28.5207   28.1727   37.9310 O   0  0  0  0  0  0  0  0  0  0  0  0
   27.7358   30.3710   37.7422 C   0  0  2  0  0  0  0  0  0  0  0  0
   28.1314   30.6758   39.0660 O   0  0  0  0  0  0  0  0  0  0  0  0
   26.5861   31.2635   37.4122 C   0  0  1  0  0  0  0  0  0  0  0  0
   27.1441   32.5962   36.9195 C   0  0  0  0  0  0  0  0  0  0  0  0
   28.5332   32.6228   36.9869 O   0  0  0  0  0  0  0  0  0  0  0  0
  2  1  1  6
  2  3  1  0
  2 11  1  0
  3  4  1  6
  3  5  1  0
  5  6  1  1
  5  7  1  0
  7  8  1  6
  7 10  1  0
  8  9  1  0
 10 11  1  0
 11 12  1  1
 13 12  1  1
 13 14  1  0
 13 18  1  0
 14 15  1  1
 14 17  1  0
 15 16  1  0
 17 22  1  0
 18 19  1  6
 18 20  1  0
 20 21  1  1
 20 22  1  0
 22 23  1  6
 23 24  1  0
M  END
$$$$
