
     RDKit          3D

 24 25  0  0  0  0  0  0  0  0999 V2000
   25.4470   23.3406   37.3497 O   0  0  0  0  0  0  0  0  0  0  0  0
   24.6213   24.3581   36.8790 C   0  0  2  0  0  0  0  0  0  0  0  0
   23.4913   23.7924   36.1006 C   0  0  1  0  0  0  0  0  0  0  0  0
   22.2988   24.4807   36.3522 O   0  0  0  0  0  0  0  0  0  0  0  0
   23.7452   23.6510   34.6355 C   0  0  2  0  0  0  0  0  0  0  0  0
   24.0683   22.3468   34.2583 O   0  0  0  0  0  0  0  0  0  0  0  0
   24.7667   24.6112   34.1073 C   0  0  1  0  0  0  0  0  0  0  0  0
   24.3104   25.1795   32.7547 C   0  0  0  0  0  0  0  0  0  0  0  0
   23.0426   25.7309   32.9958 O   0  0  0  0  0  0  0  0  0  0  0  0
   24.9050   25.6895   34.9436 O   0  0  0  0  0  0  0  0  0  0  0  0
   25.4145   25.4288   36.1905 C   0  0  1  0  0  0  0  0  0  0  0  0
   25.3952   26.9915   37.1111 S   0  0  0  0  0  0  0  0  0  0  0  0
   26.8039   28.0403   36.7081 C   0  0  1  0  0  0  0  0  0  0  0  0
   26.3773   29.2799   35.9927 C   0  0  2  0  0  0  0  0  0  0  0  0
   27.3434   29.6699   35.0874 O   0  0  0  0  0  0  0  0  0  0  0  0
   26.7921   30.1080   33.8884 C   0  0  0  0  0  0  0  0  0  0  0  0
   25.9586   30.3131   36.8217 O   0  0  0  0  0  0  0  0  0  0  0  0
   27.5390   28.3672   37.9809 C   0  0  1  0  0  0  0  0  0  0  0  0
   28.6596   27.5687   38.1558 O   0  0  0  0  0  0  0  0  0  0  0  0
   27.9907   29.8094   38.0282 C   0  0  2  0  0  0  0  0  0  0  0  0
   28.3691   30.0476   39.3706 O   0  0  0  0  0  0  0  0  0  0  0  0
   26.8955   30.7702   37.7049 C   0  0  1  0  0  0  0  0  0  0  0  0
   27.5313   32.0890   37.2728 C   0  0  0  0  0  0  0  0  0  0  0  0
   28.8447   31.9074   36.8522 O   0  0  0  0  0  0  0  0  0  0  0  0
  2  1  1  6
  2  3  1  0
  2 11  1  0
  3  4  1  6
  3  5  1  0
  5  6  1  1
  5  7  1  0
  7  8  1  6
  7 10  1  0
  8  9  1  0
 10 11  1  0
 11 12  1  1
 13 12  1  1
 13 14  1  0
 13 18  1  0
 14 15  1  1
 14 17  1  0
 15 16  1  0
 17 22  1  0
 18 19  1  6
 18 20  1  0
 20 21  1  1
 20 22  1  0
 22 23  1  6
 23 24  1  0
M  END
$$$$
