
     RDKit          3D

 24 25  0  0  0  0  0  0  0  0999 V2000
   25.5660   23.1910   37.5856 O   0  0  0  0  0  0  0  0  0  0  0  0
   24.6994   24.2097   37.1986 C   0  0  2  0  0  0  0  0  0  0  0  0
   23.5560   23.6559   36.4312 C   0  0  1  0  0  0  0  0  0  0  0  0
   22.3570   24.2989   36.7604 O   0  0  0  0  0  0  0  0  0  0  0  0
   23.7600   23.5978   34.9527 C   0  0  2  0  0  0  0  0  0  0  0  0
   24.1007   22.3239   34.4959 O   0  0  0  0  0  0  0  0  0  0  0  0
   24.7380   24.6105   34.4409 C   0  0  1  0  0  0  0  0  0  0  0  0
   24.2194   25.2364   33.1370 C   0  0  0  0  0  0  0  0  0  0  0  0
   23.7348   24.1594   32.3789 O   0  0  0  0  0  0  0  0  0  0  0  0
   24.8804   25.6470   35.3278 O   0  0  0  0  0  0  0  0  0  0  0  0
   25.4409   25.3352   36.5405 C   0  0  1  0  0  0  0  0  0  0  0  0
   25.4171   26.8467   37.5427 S   0  0  0  0  0  0  0  0  0  0  0  0
   26.7932   27.9444   37.1579 C   0  0  1  0  0  0  0  0  0  0  0  0
   26.3245   29.2013   36.5013 C   0  0  2  0  0  0  0  0  0  0  0  0
   27.2641   29.6506   35.5956 O   0  0  0  0  0  0  0  0  0  0  0  0
   26.6782   30.2459   34.4839 C   0  0  0  0  0  0  0  0  0  0  0  0
   25.8975   30.1898   37.3791 O   0  0  0  0  0  0  0  0  0  0  0  0
   27.5442   28.2373   38.4297 C   0  0  1  0  0  0  0  0  0  0  0  0
   28.6862   27.4595   38.5519 O   0  0  0  0  0  0  0  0  0  0  0  0
   27.9631   29.6868   38.5277 C   0  0  2  0  0  0  0  0  0  0  0  0
   28.3610   29.8797   39.8717 O   0  0  0  0  0  0  0  0  0  0  0  0
   26.8400   30.6333   38.2633 C   0  0  1  0  0  0  0  0  0  0  0  0
   27.4367   31.9834   37.8741 C   0  0  0  0  0  0  0  0  0  0  0  0
   28.6917   31.8367   37.2925 O   0  0  0  0  0  0  0  0  0  0  0  0
  2  1  1  6
  2  3  1  0
  2 11  1  0
  3  4  1  6
  3  5  1  0
  5  6  1  1
  5  7  1  0
  7  8  1  6
  7 10  1  0
  8  9  1  0
 10 11  1  0
 11 12  1  1
 13 12  1  1
 13 14  1  0
 13 18  1  0
 14 15  1  1
 14 17  1  0
 15 16  1  0
 17 22  1  0
 18 19  1  6
 18 20  1  0
 20 21  1  1
 20 22  1  0
 22 23  1  6
 23 24  1  0
M  END
$$$$
