
     RDKit          3D

 24 25  0  0  0  0  0  0  0  0999 V2000
   25.5193   23.5789   37.1617 O   0  0  0  0  0  0  0  0  0  0  0  0
   24.5305   24.4959   36.8154 C   0  0  2  0  0  0  0  0  0  0  0  0
   23.3567   23.7994   36.2325 C   0  0  1  0  0  0  0  0  0  0  0  0
   22.1540   24.3729   36.6614 O   0  0  0  0  0  0  0  0  0  0  0  0
   23.3917   23.6429   34.7475 C   0  0  2  0  0  0  0  0  0  0  0  0
   23.7835   22.3672   34.3396 O   0  0  0  0  0  0  0  0  0  0  0  0
   24.2144   24.6845   34.0529 C   0  0  1  0  0  0  0  0  0  0  0  0
   23.4967   25.1667   32.7828 C   0  0  0  0  0  0  0  0  0  0  0  0
   23.6560   26.5610   32.7767 O   0  0  0  0  0  0  0  0  0  0  0  0
   24.3707   25.7942   34.8437 O   0  0  0  0  0  0  0  0  0  0  0  0
   25.0926   25.6203   35.9972 C   0  0  1  0  0  0  0  0  0  0  0  0
   25.0576   27.1985   36.8905 S   0  0  0  0  0  0  0  0  0  0  0  0
   26.4302   28.2732   36.4346 C   0  0  1  0  0  0  0  0  0  0  0  0
   25.9476   29.5665   35.8643 C   0  0  2  0  0  0  0  0  0  0  0  0
   26.8242   30.0250   34.9018 O   0  0  0  0  0  0  0  0  0  0  0  0
   26.1635   30.4935   33.7715 C   0  0  0  0  0  0  0  0  0  0  0  0
   25.6222   30.5315   36.8093 O   0  0  0  0  0  0  0  0  0  0  0  0
   27.2896   28.4968   37.6506 C   0  0  1  0  0  0  0  0  0  0  0  0
   28.4142   27.6847   37.6509 O   0  0  0  0  0  0  0  0  0  0  0  0
   27.7578   29.9298   37.7665 C   0  0  2  0  0  0  0  0  0  0  0  0
   28.2683   30.0601   39.0796 O   0  0  0  0  0  0  0  0  0  0  0  0
   26.6457   30.9153   37.6291 C   0  0  1  0  0  0  0  0  0  0  0  0
   27.2489   32.2630   37.2416 C   0  0  0  0  0  0  0  0  0  0  0  0
   28.5746   32.1314   36.8419 O   0  0  0  0  0  0  0  0  0  0  0  0
  2  1  1  6
  2  3  1  0
  2 11  1  0
  3  4  1  6
  3  5  1  0
  5  6  1  1
  5  7  1  0
  7  8  1  6
  7 10  1  0
  8  9  1  0
 10 11  1  0
 11 12  1  1
 13 12  1  1
 13 14  1  0
 13 18  1  0
 14 15  1  6
 14 17  1  0
 15 16  1  0
 17 22  1  0
 18 19  1  6
 18 20  1  0
 20 21  1  1
 20 22  1  0
 22 23  1  6
 23 24  1  0
M  END
$$$$
