
     RDKit          3D

 24 25  0  0  0  0  0  0  0  0999 V2000
   25.4964   23.4615   37.5406 O   0  0  0  0  0  0  0  0  0  0  0  0
   24.6530   24.4147   36.9759 C   0  0  2  0  0  0  0  0  0  0  0  0
   23.5727   23.7577   36.1985 C   0  0  1  0  0  0  0  0  0  0  0  0
   22.3483   24.4156   36.3635 O   0  0  0  0  0  0  0  0  0  0  0  0
   23.8846   23.5314   34.7554 C   0  0  2  0  0  0  0  0  0  0  0  0
   24.2670   22.2187   34.4764 O   0  0  0  0  0  0  0  0  0  0  0  0
   24.8901   24.4931   34.2001 C   0  0  1  0  0  0  0  0  0  0  0  0
   24.4636   24.9552   32.7982 C   0  0  0  0  0  0  0  0  0  0  0  0
   23.7666   26.1560   33.0025 O   0  0  0  0  0  0  0  0  0  0  0  0
   24.9598   25.6277   34.9676 O   0  0  0  0  0  0  0  0  0  0  0  0
   25.4324   25.4677   36.2456 C   0  0  1  0  0  0  0  0  0  0  0  0
   25.3245   27.0848   37.0598 S   0  0  0  0  0  0  0  0  0  0  0  0
   26.7522   28.1255   36.7059 C   0  0  1  0  0  0  0  0  0  0  0  0
   26.3523   29.3881   36.0155 C   0  0  2  0  0  0  0  0  0  0  0  0
   27.3375   29.7885   35.1357 O   0  0  0  0  0  0  0  0  0  0  0  0
   26.8132   30.2195   33.9221 C   0  0  0  0  0  0  0  0  0  0  0  0
   25.9330   30.4052   36.8638 O   0  0  0  0  0  0  0  0  0  0  0  0
   27.4707   28.4110   37.9980 C   0  0  1  0  0  0  0  0  0  0  0  0
   28.5786   27.5943   38.1701 O   0  0  0  0  0  0  0  0  0  0  0  0
   27.9392   29.8457   38.0890 C   0  0  2  0  0  0  0  0  0  0  0  0
   28.2989   30.0452   39.4427 O   0  0  0  0  0  0  0  0  0  0  0  0
   26.8612   30.8281   37.7729 C   0  0  1  0  0  0  0  0  0  0  0  0
   27.5199   32.1493   37.3845 C   0  0  0  0  0  0  0  0  0  0  0  0
   28.9070   32.0453   37.3823 O   0  0  0  0  0  0  0  0  0  0  0  0
  2  1  1  6
  2  3  1  0
  2 11  1  0
  3  4  1  6
  3  5  1  0
  5  6  1  1
  5  7  1  0
  7  8  1  6
  7 10  1  0
  8  9  1  0
 10 11  1  0
 11 12  1  1
 13 12  1  1
 13 14  1  0
 13 18  1  0
 14 15  1  1
 14 17  1  0
 15 16  1  0
 17 22  1  0
 18 19  1  6
 18 20  1  0
 20 21  1  1
 20 22  1  0
 22 23  1  6
 23 24  1  0
M  END
$$$$
