
     RDKit          3D

 24 25  0  0  0  0  0  0  0  0999 V2000
   25.9199   23.5449   37.5745 O   0  0  0  0  0  0  0  0  0  0  0  0
   24.9112   24.4055   37.1499 C   0  0  2  0  0  0  0  0  0  0  0  0
   23.7885   23.6376   36.5559 C   0  0  1  0  0  0  0  0  0  0  0  0
   22.5489   24.1811   36.9128 O   0  0  0  0  0  0  0  0  0  0  0  0
   23.8876   23.4171   35.0819 C   0  0  2  0  0  0  0  0  0  0  0  0
   24.3435   22.1412   34.7478 O   0  0  0  0  0  0  0  0  0  0  0  0
   24.6966   24.4589   34.3717 C   0  0  1  0  0  0  0  0  0  0  0  0
   24.0113   24.8554   33.0549 C   0  0  0  0  0  0  0  0  0  0  0  0
   24.2881   26.2216   32.8926 O   0  0  0  0  0  0  0  0  0  0  0  0
   24.7793   25.6078   35.1162 O   0  0  0  0  0  0  0  0  0  0  0  0
   25.4616   25.5141   36.3027 C   0  0  1  0  0  0  0  0  0  0  0  0
   25.3314   27.1277   37.1208 S   0  0  0  0  0  0  0  0  0  0  0  0
   26.6630   28.2449   36.6458 C   0  0  1  0  0  0  0  0  0  0  0  0
   26.1444   29.4278   35.8958 C   0  0  2  0  0  0  0  0  0  0  0  0
   27.0643   29.8416   34.9538 O   0  0  0  0  0  0  0  0  0  0  0  0
   26.4694   30.1259   33.7295 C   0  0  0  0  0  0  0  0  0  0  0  0
   25.6803   30.4641   36.6963 O   0  0  0  0  0  0  0  0  0  0  0  0
   27.4038   28.6647   37.8876 C   0  0  1  0  0  0  0  0  0  0  0  0
   28.5756   27.9438   38.0645 O   0  0  0  0  0  0  0  0  0  0  0  0
   27.7658   30.1326   37.8711 C   0  0  2  0  0  0  0  0  0  0  0  0
   28.1578   30.4446   39.1942 O   0  0  0  0  0  0  0  0  0  0  0  0
   26.6060   31.0112   37.5392 C   0  0  1  0  0  0  0  0  0  0  0  0
   27.1488   32.3493   37.0438 C   0  0  0  0  0  0  0  0  0  0  0  0
   28.4084   32.2071   36.4710 O   0  0  0  0  0  0  0  0  0  0  0  0
  2  1  1  6
  2  3  1  0
  2 11  1  0
  3  4  1  6
  3  5  1  0
  5  6  1  1
  5  7  1  0
  7  8  1  6
  7 10  1  0
  8  9  1  0
 10 11  1  0
 11 12  1  1
 13 12  1  1
 13 14  1  0
 13 18  1  0
 14 15  1  1
 14 17  1  0
 15 16  1  0
 17 22  1  0
 18 19  1  6
 18 20  1  0
 20 21  1  1
 20 22  1  0
 22 23  1  6
 23 24  1  0
M  END
$$$$
