
     RDKit          3D

 55 59  0  0  0  0  0  0  0  0999 V2000
   -3.3597    5.4962    2.1657 C   0  0  0  0  0  0  0  0  0  0  0  0
   -4.3325    5.3319    2.9787 O   0  0  0  0  0  0  0  0  0  0  0  0
   -2.9255    4.3270    1.3997 C   0  0  0  0  0  0  0  0  0  0  0  0
   -2.7609    6.8027    2.0570 N   0  0  0  0  0  0  0  0  0  0  0  0
   -3.3231    7.8698    2.8172 C   0  0  2  0  0  0  0  0  0  0  0  0
   -4.6711    8.2512    2.3672 C   0  0  0  0  0  0  0  0  0  0  0  0
   -5.6930    7.5439    2.5879 O   0  0  0  0  0  0  0  0  0  0  0  0
   -2.3997    9.0592    2.8038 C   0  0  0  0  0  0  0  0  0  0  0  0
   -1.3980    9.1496    3.8929 C   0  0  1  0  0  0  0  0  0  0  0  0
   -0.4094    7.9815    3.6427 C   0  0  0  0  0  0  0  0  0  0  0  0
   -0.5421   10.3863    3.8914 C   0  0  0  0  0  0  0  0  0  0  0  0
   -4.8569    9.4612    1.6565 N   0  0  0  0  0  0  0  0  0  0  0  0
   -6.2048    9.8549    1.2539 C   0  0  2  0  0  0  0  0  0  0  0  0
   -7.2710    9.2510    2.0406 C   0  0  0  0  0  0  0  0  0  0  0  0
   -8.1217    9.9598    2.6926 O   0  0  0  0  0  0  0  0  0  0  0  0
   -6.3353    9.7264   -0.2518 C   0  0  0  0  0  0  0  0  0  0  0  0
   -5.6906   10.7820   -1.0205 C   0  0  0  0  0  0  0  0  0  0  0  0
   -6.2429   11.5476   -2.0536 C   0  0  0  0  0  0  0  0  0  0  0  0
   -4.3916   11.2231   -0.9289 C   0  0  0  0  0  0  0  0  0  0  0  0
   -5.3458   12.3887   -2.5513 N   0  0  0  0  0  0  0  0  0  0  0  0
   -4.1975   12.2158   -1.8837 C   0  0  0  0  0  0  0  0  0  0  0  0
   -3.2927   10.9317   -0.1357 C   0  0  0  0  0  0  0  0  0  0  0  0
   -2.9992   12.8700   -2.0414 C   0  0  0  0  0  0  0  0  0  0  0  0
   -2.0890   11.5816   -0.2855 C   0  0  0  0  0  0  0  0  0  0  0  0
   -1.9349   12.5490   -1.2341 C   0  0  0  0  0  0  0  0  0  0  0  0
   -7.5028    7.8408    2.1831 N   0  0  0  0  0  0  0  0  0  0  0  0
   -8.6212    7.3343    3.0111 C   0  0  2  0  0  0  0  0  0  0  0  0
   -8.1534    6.7770    4.2908 C   0  0  0  0  0  0  0  0  0  0  0  0
   -7.2826    5.8720    4.2327 O   0  0  0  0  0  0  0  0  0  0  0  0
   -9.2587    6.2844    2.0885 C   0  0  0  0  0  0  0  0  0  0  0  0
  -10.6506    6.5527    1.7586 C   0  0  0  0  0  0  0  0  0  0  0  0
  -11.7487    5.8932    2.3096 C   0  0  0  0  0  0  0  0  0  0  0  0
  -11.1690    7.4953    0.9127 C   0  0  0  0  0  0  0  0  0  0  0  0
  -12.8554    6.4364    1.8020 N   0  0  0  0  0  0  0  0  0  0  0  0
  -12.5674    7.4405    0.9250 C   0  0  0  0  0  0  0  0  0  0  0  0
  -10.6409    8.4510    0.0709 C   0  0  0  0  0  0  0  0  0  0  0  0
  -13.3505    8.2706    0.1651 C   0  0  0  0  0  0  0  0  0  0  0  0
  -11.4153    9.2988   -0.7043 C   0  0  0  0  0  0  0  0  0  0  0  0
  -12.7877    9.2168   -0.6642 C   0  0  0  0  0  0  0  0  0  0  0  0
   -8.6443    7.2231    5.5382 N   0  0  0  0  0  0  0  0  0  0  0  0
   -8.5287    6.8645    6.8917 C   0  0  2  0  0  0  0  0  0  0  0  0
   -7.9122    5.6094    7.2728 C   0  0  0  0  0  0  0  0  0  0  0  0
   -7.6256    4.7317    6.4465 O   0  0  0  0  0  0  0  0  0  0  0  0
   -9.9597    6.9551    7.4187 C   0  0  0  0  0  0  0  0  0  0  0  0
  -10.6112    7.9357    6.4706 C   0  0  0  0  0  0  0  0  0  0  0  0
   -9.4853    8.4503    5.6037 C   0  0  0  0  0  0  0  0  0  0  0  0
   -7.5877    5.2841    8.6405 N   0  0  0  0  0  0  0  0  0  0  0  0
   -6.8943    4.1129    9.0413 C   0  0  2  0  0  0  0  0  0  0  0  0
   -5.5636    4.4408    9.6779 C   0  0  0  0  0  0  0  0  0  0  0  0
   -4.8448    3.4134   10.2651 O   0  0  0  0  0  1  0  0  0  0  0  0
   -6.6878    3.0735    7.9976 C   0  0  0  0  0  0  0  0  0  0  0  0
   -6.1868    1.8455    8.6769 C   0  0  0  0  0  0  0  0  0  0  0  0
   -4.8387    1.4396    8.5879 O   0  0  0  0  0  1  0  0  0  0  0  0
   -6.9312    1.1040    9.3653 O   0  0  0  0  0  0  0  0  0  0  0  0
   -5.0826    5.5933    9.7000 O   0  0  0  0  0  0  0  0  0  0  0  0
  1  2  2  0
  1  3  1  0
  1  4  1  0
  4  5  1  0
  5  6  1  0
  5  8  1  6
  6  7  2  0
  6 12  1  0
  8  9  1  0
  9 10  1  6
  9 11  1  0
 12 13  1  0
 13 14  1  0
 13 16  1  6
 14 15  2  0
 14 26  1  0
 16 17  1  0
 17 18  2  0
 17 19  1  0
 18 20  1  0
 19 21  2  0
 19 22  1  0
 20 21  1  0
 21 23  1  0
 22 24  2  0
 23 25  2  0
 24 25  1  0
 26 27  1  0
 27 28  1  0
 27 30  1  6
 28 29  2  0
 28 40  1  0
 30 31  1  0
 31 32  2  0
 31 33  1  0
 32 34  1  0
 33 35  2  0
 33 36  1  0
 34 35  1  0
 35 37  1  0
 36 38  2  0
 37 39  2  0
 38 39  1  0
 40 41  1  0
 40 46  1  0
 41 42  1  6
 41 44  1  0
 42 43  2  0
 42 47  1  0
 44 45  1  0
 45 46  1  0
 47 48  1  0
 48 49  1  0
 48 51  1  6
 49 50  1  0
 49 55  2  0
 51 52  1  0
 52 53  1  0
 52 54  2  0
M  CHG  2  50  -1  53  -1
M  END
$$$$
