
     RDKit          3D

 55 59  0  0  0  0  0  0  0  0999 V2000
   -6.9764   12.6187   -1.8883 C   0  0  0  0  0  0  0  0  0  0  0  0
   -7.0786   13.0360   -0.6842 O   0  0  0  0  0  0  0  0  0  0  0  0
   -5.9405   13.2316   -2.7212 C   0  0  0  0  0  0  0  0  0  0  0  0
   -7.8744   11.5870   -2.3424 N   0  0  0  0  0  0  0  0  0  0  0  0
   -8.8883   11.1315   -1.4494 C   0  0  2  0  0  0  0  0  0  0  0  0
   -8.4554   10.0007   -0.6134 C   0  0  0  0  0  0  0  0  0  0  0  0
   -9.1928    9.4781    0.2678 O   0  0  0  0  0  0  0  0  0  0  0  0
  -10.1360   10.7812   -2.2161 C   0  0  0  0  0  0  0  0  0  0  0  0
  -10.9389   11.9068   -2.7512 C   0  0  1  0  0  0  0  0  0  0  0  0
  -12.1868   11.2527   -3.3987 C   0  0  0  0  0  0  0  0  0  0  0  0
  -11.4906   12.8598   -1.7268 C   0  0  0  0  0  0  0  0  0  0  0  0
   -7.1610    9.4548   -0.7876 N   0  0  0  0  0  0  0  0  0  0  0  0
   -6.7299    8.3495    0.0646 C   0  0  2  0  0  0  0  0  0  0  0  0
   -6.9960    8.5409    1.4834 C   0  0  0  0  0  0  0  0  0  0  0  0
   -7.7362    9.4988    1.9144 O   0  0  0  0  0  0  0  0  0  0  0  0
   -5.3092    7.9617   -0.2988 C   0  0  0  0  0  0  0  0  0  0  0  0
   -4.2734    8.8288    0.2454 C   0  0  0  0  0  0  0  0  0  0  0  0
   -3.4118    8.5648    1.3162 C   0  0  0  0  0  0  0  0  0  0  0  0
   -3.9486   10.1068   -0.1439 C   0  0  0  0  0  0  0  0  0  0  0  0
   -2.6247    9.6049    1.5582 N   0  0  0  0  0  0  0  0  0  0  0  0
   -2.9279   10.5697    0.6799 C   0  0  0  0  0  0  0  0  0  0  0  0
   -4.3719   10.9883   -1.1263 C   0  0  0  0  0  0  0  0  0  0  0  0
   -2.3696   11.8178    0.5403 C   0  0  0  0  0  0  0  0  0  0  0  0
   -3.8188   12.2397   -1.2745 C   0  0  0  0  0  0  0  0  0  0  0  0
   -2.8202   12.6606   -0.4467 C   0  0  0  0  0  0  0  0  0  0  0  0
   -6.4879    7.7159    2.5434 N   0  0  0  0  0  0  0  0  0  0  0  0
   -7.1771    7.6505    3.8525 C   0  0  2  0  0  0  0  0  0  0  0  0
   -6.3706    6.9534    4.8677 C   0  0  0  0  0  0  0  0  0  0  0  0
   -5.9809    5.7919    4.5853 O   0  0  0  0  0  0  0  0  0  0  0  0
   -8.4773    6.9128    3.4985 C   0  0  0  0  0  0  0  0  0  0  0  0
   -9.3228    6.6185    4.6460 C   0  0  0  0  0  0  0  0  0  0  0  0
   -9.1604    5.5333    5.5066 C   0  0  0  0  0  0  0  0  0  0  0  0
  -10.3827    7.3293    5.1398 C   0  0  0  0  0  0  0  0  0  0  0  0
  -10.0895    5.6177    6.4591 N   0  0  0  0  0  0  0  0  0  0  0  0
  -10.8849    6.7130    6.2916 C   0  0  0  0  0  0  0  0  0  0  0  0
  -11.0521    8.4750    4.7654 C   0  0  0  0  0  0  0  0  0  0  0  0
  -11.9532    7.2081    6.9940 C   0  0  0  0  0  0  0  0  0  0  0  0
  -12.1331    8.9909    5.4618 C   0  0  0  0  0  0  0  0  0  0  0  0
  -12.5973    8.3583    6.5915 C   0  0  0  0  0  0  0  0  0  0  0  0
   -6.0366    7.5420    6.1078 N   0  0  0  0  0  0  0  0  0  0  0  0
   -5.3669    7.1766    7.2876 C   0  0  2  0  0  0  0  0  0  0  0  0
   -5.0084    5.7943    7.5350 C   0  0  0  0  0  0  0  0  0  0  0  0
   -3.8479    5.4443    7.7919 O   0  0  0  0  0  0  0  0  0  0  0  0
   -6.2619    7.7189    8.4005 C   0  0  0  0  0  0  0  0  0  0  0  0
   -7.0047    8.8471    7.7220 C   0  0  0  0  0  0  0  0  0  0  0  0
   -6.3664    8.9726    6.3579 C   0  0  0  0  0  0  0  0  0  0  0  0
   -5.9718    4.7208    7.4987 N   0  0  0  0  0  0  0  0  0  0  0  0
   -5.6442    3.3470    7.6349 C   0  0  2  0  0  0  0  0  0  0  0  0
   -6.4860    2.4785    6.7290 C   0  0  0  0  0  0  0  0  0  0  0  0
   -7.4638    3.0854    5.9591 O   0  0  0  0  0  1  0  0  0  0  0  0
   -5.6831    2.7885    9.0129 C   0  0  0  0  0  0  0  0  0  0  0  0
   -6.9895    3.1722    9.6184 C   0  0  0  0  0  0  0  0  0  0  0  0
   -8.2144    2.9513    8.9545 O   0  0  0  0  0  1  0  0  0  0  0  0
   -7.0762    3.7115   10.7496 O   0  0  0  0  0  0  0  0  0  0  0  0
   -6.3420    1.2408    6.6427 O   0  0  0  0  0  0  0  0  0  0  0  0
  1  2  2  0
  1  3  1  0
  1  4  1  0
  4  5  1  0
  5  6  1  0
  5  8  1  6
  6  7  2  0
  6 12  1  0
  8  9  1  0
  9 10  1  1
  9 11  1  0
 12 13  1  0
 13 14  1  0
 13 16  1  1
 14 15  2  0
 14 26  1  0
 16 17  1  0
 17 18  2  0
 17 19  1  0
 18 20  1  0
 19 21  2  0
 19 22  1  0
 20 21  1  0
 21 23  1  0
 22 24  2  0
 23 25  2  0
 24 25  1  0
 26 27  1  0
 27 28  1  0
 27 30  1  6
 28 29  2  0
 28 40  1  0
 30 31  1  0
 31 32  2  0
 31 33  1  0
 32 34  1  0
 33 35  2  0
 33 36  1  0
 34 35  1  0
 35 37  1  0
 36 38  2  0
 37 39  2  0
 38 39  1  0
 40 41  1  0
 40 46  1  0
 41 42  1  1
 41 44  1  0
 42 43  2  0
 42 47  1  0
 44 45  1  0
 45 46  1  0
 47 48  1  0
 48 49  1  0
 48 51  1  1
 49 50  1  0
 49 55  2  0
 51 52  1  0
 52 53  1  0
 52 54  2  0
M  CHG  2  50  -1  53  -1
M  END
$$$$
