
     RDKit          3D

 55 59  0  0  0  0  0  0  0  0999 V2000
   -2.2438   10.0569    1.7826 C   0  0  0  0  0  0  0  0  0  0  0  0
   -2.7892   10.8827    2.5919 O   0  0  0  0  0  0  0  0  0  0  0  0
   -1.3749    9.0309    2.3611 C   0  0  0  0  0  0  0  0  0  0  0  0
   -2.5147   10.1871    0.3730 N   0  0  0  0  0  0  0  0  0  0  0  0
   -3.6765   10.9091   -0.0287 C   0  0  2  0  0  0  0  0  0  0  0  0
   -4.9276   10.3057    0.4571 C   0  0  0  0  0  0  0  0  0  0  0  0
   -5.7248   10.9082    1.2284 O   0  0  0  0  0  0  0  0  0  0  0  0
   -3.7028   11.0583   -1.5268 C   0  0  0  0  0  0  0  0  0  0  0  0
   -4.5482   12.1414   -2.0835 C   0  0  1  0  0  0  0  0  0  0  0  0
   -4.0072   12.3933   -3.5147 C   0  0  0  0  0  0  0  0  0  0  0  0
   -6.0011   11.8025   -2.2744 C   0  0  0  0  0  0  0  0  0  0  0  0
   -5.2766    8.9945    0.0538 N   0  0  0  0  0  0  0  0  0  0  0  0
   -5.2892    7.9208    1.0442 C   0  0  2  0  0  0  0  0  0  0  0  0
   -5.8865    8.2839    2.3216 C   0  0  0  0  0  0  0  0  0  0  0  0
   -5.6212    9.3973    2.9056 O   0  0  0  0  0  0  0  0  0  0  0  0
   -3.9138    7.2846    1.1105 C   0  0  0  0  0  0  0  0  0  0  0  0
   -3.4363    6.7128   -0.1409 C   0  0  0  0  0  0  0  0  0  0  0  0
   -2.4768    7.2410   -1.0120 C   0  0  0  0  0  0  0  0  0  0  0  0
   -3.8548    5.5575   -0.7577 C   0  0  0  0  0  0  0  0  0  0  0  0
   -2.3259    6.4647   -2.0771 N   0  0  0  0  0  0  0  0  0  0  0  0
   -3.1573    5.4218   -1.9535 C   0  0  0  0  0  0  0  0  0  0  0  0
   -4.7540    4.5425   -0.4701 C   0  0  0  0  0  0  0  0  0  0  0  0
   -3.3407    4.3574   -2.8032 C   0  0  0  0  0  0  0  0  0  0  0  0
   -4.9443    3.4724   -1.3142 C   0  0  0  0  0  0  0  0  0  0  0  0
   -4.2435    3.3735   -2.4798 C   0  0  0  0  0  0  0  0  0  0  0  0
   -6.8146    7.4781    3.0645 N   0  0  0  0  0  0  0  0  0  0  0  0
   -8.1765    7.9733    3.3696 C   0  0  2  0  0  0  0  0  0  0  0  0
   -8.4087    8.0956    4.8181 C   0  0  0  0  0  0  0  0  0  0  0  0
   -9.5966    8.2709    5.1909 O   0  0  0  0  0  0  0  0  0  0  0  0
   -9.0648    6.9142    2.6995 C   0  0  0  0  0  0  0  0  0  0  0  0
   -9.8111    7.4073    1.5514 C   0  0  0  0  0  0  0  0  0  0  0  0
   -9.5284    7.1063    0.2195 C   0  0  0  0  0  0  0  0  0  0  0  0
  -10.9279    8.1977    1.5250 C   0  0  0  0  0  0  0  0  0  0  0  0
  -10.4477    7.6988   -0.5430 N   0  0  0  0  0  0  0  0  0  0  0  0
  -11.3505    8.3953    0.2055 C   0  0  0  0  0  0  0  0  0  0  0  0
  -11.7014    8.8307    2.4747 C   0  0  0  0  0  0  0  0  0  0  0  0
  -12.4459    9.1534   -0.1186 C   0  0  0  0  0  0  0  0  0  0  0  0
  -12.8115    9.6005    2.1672 C   0  0  0  0  0  0  0  0  0  0  0  0
  -13.1979    9.7703    0.8580 C   0  0  0  0  0  0  0  0  0  0  0  0
   -7.3619    8.0217    5.7640 N   0  0  0  0  0  0  0  0  0  0  0  0
   -6.8879    7.1120    6.7241 C   0  0  2  0  0  0  0  0  0  0  0  0
   -7.6762    5.9543    7.0966 C   0  0  0  0  0  0  0  0  0  0  0  0
   -8.8976    5.8902    6.8986 O   0  0  0  0  0  0  0  0  0  0  0  0
   -6.5876    7.9859    7.9405 C   0  0  0  0  0  0  0  0  0  0  0  0
   -6.3473    9.3482    7.3313 C   0  0  0  0  0  0  0  0  0  0  0  0
   -6.3558    9.1172    5.8378 C   0  0  0  0  0  0  0  0  0  0  0  0
   -7.1020    4.7909    7.7278 N   0  0  0  0  0  0  0  0  0  0  0  0
   -7.8588    3.7371    8.3024 C   0  0  2  0  0  0  0  0  0  0  0  0
   -8.1893    4.0111    9.7513 C   0  0  0  0  0  0  0  0  0  0  0  0
   -8.8705    3.0398   10.4652 O   0  0  0  0  0  1  0  0  0  0  0  0
   -7.2862    2.3692    8.1875 C   0  0  0  0  0  0  0  0  0  0  0  0
   -6.8036    2.1982    6.7881 C   0  0  0  0  0  0  0  0  0  0  0  0
   -6.9728    3.2020    5.8115 O   0  0  0  0  0  1  0  0  0  0  0  0
   -6.2205    1.1562    6.3982 O   0  0  0  0  0  0  0  0  0  0  0  0
   -7.8781    5.0711   10.3341 O   0  0  0  0  0  0  0  0  0  0  0  0
  1  2  2  0
  1  3  1  0
  1  4  1  0
  4  5  1  0
  5  6  1  0
  5  8  1  6
  6  7  2  0
  6 12  1  0
  8  9  1  0
  9 10  1  6
  9 11  1  0
 12 13  1  0
 13 14  1  0
 13 16  1  1
 14 15  2  0
 14 26  1  0
 16 17  1  0
 17 18  2  0
 17 19  1  0
 18 20  1  0
 19 21  2  0
 19 22  1  0
 20 21  1  0
 21 23  1  0
 22 24  2  0
 23 25  2  0
 24 25  1  0
 26 27  1  0
 27 28  1  0
 27 30  1  1
 28 29  2  0
 28 40  1  0
 30 31  1  0
 31 32  2  0
 31 33  1  0
 32 34  1  0
 33 35  2  0
 33 36  1  0
 34 35  1  0
 35 37  1  0
 36 38  2  0
 37 39  2  0
 38 39  1  0
 40 41  1  0
 40 46  1  0
 41 42  1  1
 41 44  1  0
 42 43  2  0
 42 47  1  0
 44 45  1  0
 45 46  1  0
 47 48  1  0
 48 49  1  0
 48 51  1  1
 49 50  1  0
 49 55  2  0
 51 52  1  0
 52 53  1  0
 52 54  2  0
M  CHG  2  50  -1  53  -1
M  END
$$$$
