
     RDKit          3D

 55 59  0  0  0  0  0  0  0  0999 V2000
   -7.1962   10.4672   -1.6691 C   0  0  0  0  0  0  0  0  0  0  0  0
   -7.6092    9.5685   -2.4790 O   0  0  0  0  0  0  0  0  0  0  0  0
   -7.5753   11.8511   -1.9581 C   0  0  0  0  0  0  0  0  0  0  0  0
   -6.3951   10.0667   -0.5399 N   0  0  0  0  0  0  0  0  0  0  0  0
   -5.0351    9.7056   -0.7693 C   0  0  2  0  0  0  0  0  0  0  0  0
   -4.3284    9.3086    0.4587 C   0  0  0  0  0  0  0  0  0  0  0  0
   -3.1566    8.8391    0.4538 O   0  0  0  0  0  0  0  0  0  0  0  0
   -4.3099   10.8283   -1.4629 C   0  0  0  0  0  0  0  0  0  0  0  0
   -3.7333   10.5379   -2.7975 C   0  0  1  0  0  0  0  0  0  0  0  0
   -2.2410   10.2054   -2.5391 C   0  0  0  0  0  0  0  0  0  0  0  0
   -4.2834    9.3249   -3.4962 C   0  0  0  0  0  0  0  0  0  0  0  0
   -4.9677    9.4523    1.7134 N   0  0  0  0  0  0  0  0  0  0  0  0
   -5.6331    8.2988    2.3138 C   0  0  2  0  0  0  0  0  0  0  0  0
   -7.0009    8.5480    2.7467 C   0  0  0  0  0  0  0  0  0  0  0  0
   -7.9132    8.9391    1.9306 O   0  0  0  0  0  0  0  0  0  0  0  0
   -4.7139    7.6706    3.3439 C   0  0  0  0  0  0  0  0  0  0  0  0
   -3.3912    8.2721    3.4406 C   0  0  0  0  0  0  0  0  0  0  0  0
   -2.3422    7.9008    4.2894 C   0  0  0  0  0  0  0  0  0  0  0  0
   -2.9033    9.3588    2.7541 C   0  0  0  0  0  0  0  0  0  0  0  0
   -1.2976    8.7028    4.1298 N   0  0  0  0  0  0  0  0  0  0  0  0
   -1.6080    9.6099    3.1945 C   0  0  0  0  0  0  0  0  0  0  0  0
   -3.3751   10.2082    1.7654 C   0  0  0  0  0  0  0  0  0  0  0  0
   -0.8379   10.6312    2.6919 C   0  0  0  0  0  0  0  0  0  0  0  0
   -2.6115   11.2331    1.2554 C   0  0  0  0  0  0  0  0  0  0  0  0
   -1.3455   11.4506    1.7128 C   0  0  0  0  0  0  0  0  0  0  0  0
   -7.4897    8.3933    4.0883 N   0  0  0  0  0  0  0  0  0  0  0  0
   -8.4491    7.3177    4.4283 C   0  0  2  0  0  0  0  0  0  0  0  0
   -8.1250    6.6730    5.7114 C   0  0  0  0  0  0  0  0  0  0  0  0
   -7.2671    5.7543    5.6856 O   0  0  0  0  0  0  0  0  0  0  0  0
   -8.3182    6.3731    3.2240 C   0  0  0  0  0  0  0  0  0  0  0  0
   -9.1361    6.7529    2.0815 C   0  0  0  0  0  0  0  0  0  0  0  0
   -8.7295    6.6994    0.7488 C   0  0  0  0  0  0  0  0  0  0  0  0
  -10.4358    7.1805    2.0569 C   0  0  0  0  0  0  0  0  0  0  0  0
   -9.7557    7.0797   -0.0127 N   0  0  0  0  0  0  0  0  0  0  0  0
  -10.8508    7.3934    0.7374 C   0  0  0  0  0  0  0  0  0  0  0  0
  -11.3958    7.4490    3.0094 C   0  0  0  0  0  0  0  0  0  0  0  0
  -12.1099    7.8302    0.4155 C   0  0  0  0  0  0  0  0  0  0  0  0
  -12.6730    7.8908    2.7041 C   0  0  0  0  0  0  0  0  0  0  0  0
  -13.0455    8.0866    1.3946 C   0  0  0  0  0  0  0  0  0  0  0  0
   -8.7354    7.0525    6.9276 N   0  0  0  0  0  0  0  0  0  0  0  0
   -8.7048    6.6586    8.2759 C   0  0  2  0  0  0  0  0  0  0  0  0
   -8.0495    5.4276    8.6706 C   0  0  0  0  0  0  0  0  0  0  0  0
   -8.0588    5.0147    9.8388 O   0  0  0  0  0  0  0  0  0  0  0  0
  -10.1750    6.6549    8.6905 C   0  0  0  0  0  0  0  0  0  0  0  0
  -10.8057    7.6277    7.7206 C   0  0  0  0  0  0  0  0  0  0  0  0
   -9.6471    8.2296    6.9595 C   0  0  0  0  0  0  0  0  0  0  0  0
   -7.3350    4.5911    7.7371 N   0  0  0  0  0  0  0  0  0  0  0  0
   -6.6739    3.3855    8.0871 C   0  0  2  0  0  0  0  0  0  0  0  0
   -5.7433    2.9192    6.9916 C   0  0  0  0  0  0  0  0  0  0  0  0
   -5.2333    1.6340    7.0649 O   0  0  0  0  0  1  0  0  0  0  0  0
   -7.5398    2.2495    8.5019 C   0  0  0  0  0  0  0  0  0  0  0  0
   -8.3956    1.8860    7.3374 C   0  0  0  0  0  0  0  0  0  0  0  0
   -8.5838    2.7605    6.2466 O   0  0  0  0  0  1  0  0  0  0  0  0
   -8.9958    0.7854    7.2589 O   0  0  0  0  0  0  0  0  0  0  0  0
   -5.4126    3.6376    6.0248 O   0  0  0  0  0  0  0  0  0  0  0  0
  1  2  2  0
  1  3  1  0
  1  4  1  0
  4  5  1  0
  5  6  1  0
  5  8  1  1
  6  7  2  0
  6 12  1  0
  8  9  1  0
  9 10  1  1
  9 11  1  0
 12 13  1  0
 13 14  1  0
 13 16  1  1
 14 15  2  0
 14 26  1  0
 16 17  1  0
 17 18  2  0
 17 19  1  0
 18 20  1  0
 19 21  2  0
 19 22  1  0
 20 21  1  0
 21 23  1  0
 22 24  2  0
 23 25  2  0
 24 25  1  0
 26 27  1  0
 27 28  1  0
 27 30  1  6
 28 29  2  0
 28 40  1  0
 30 31  1  0
 31 32  2  0
 31 33  1  0
 32 34  1  0
 33 35  2  0
 33 36  1  0
 34 35  1  0
 35 37  1  0
 36 38  2  0
 37 39  2  0
 38 39  1  0
 40 41  1  0
 40 46  1  0
 41 42  1  6
 41 44  1  0
 42 43  2  0
 42 47  1  0
 44 45  1  0
 45 46  1  0
 47 48  1  0
 48 49  1  0
 48 51  1  6
 49 50  1  0
 49 55  2  0
 51 52  1  0
 52 53  1  0
 52 54  2  0
M  CHG  2  50  -1  53  -1
M  END
$$$$
