
     RDKit          3D

 55 59  0  0  0  0  0  0  0  0999 V2000
   -3.1734    5.0366   -0.6060 C   0  0  0  0  0  0  0  0  0  0  0  0
   -4.4483    4.9450   -0.5826 O   0  0  0  0  0  0  0  0  0  0  0  0
   -2.5109    4.8017   -1.8899 C   0  0  0  0  0  0  0  0  0  0  0  0
   -2.4797    5.3603    0.6152 N   0  0  0  0  0  0  0  0  0  0  0  0
   -3.2522    5.5939    1.7904 C   0  0  2  0  0  0  0  0  0  0  0  0
   -3.2291    6.9991    2.2263 C   0  0  0  0  0  0  0  0  0  0  0  0
   -2.7875    7.3603    3.3524 O   0  0  0  0  0  0  0  0  0  0  0  0
   -2.7971    4.6836    2.9002 C   0  0  0  0  0  0  0  0  0  0  0  0
   -1.8487    5.2471    3.8906 C   0  0  1  0  0  0  0  0  0  0  0  0
   -2.3748    4.7864    5.2746 C   0  0  0  0  0  0  0  0  0  0  0  0
   -0.4412    4.7219    3.8186 C   0  0  0  0  0  0  0  0  0  0  0  0
   -3.7150    8.0095    1.3622 N   0  0  0  0  0  0  0  0  0  0  0  0
   -4.3050    9.2174    1.9340 C   0  0  2  0  0  0  0  0  0  0  0  0
   -5.7598    9.2590    1.8887 C   0  0  0  0  0  0  0  0  0  0  0  0
   -6.4198   10.3254    2.1690 O   0  0  0  0  0  0  0  0  0  0  0  0
   -3.5876   10.4346    1.3820 C   0  0  0  0  0  0  0  0  0  0  0  0
   -2.1696   10.5150    1.7038 C   0  0  0  0  0  0  0  0  0  0  0  0
   -1.5854   10.9900    2.8835 C   0  0  0  0  0  0  0  0  0  0  0  0
   -1.1004   10.1852    0.9049 C   0  0  0  0  0  0  0  0  0  0  0  0
   -0.2616   10.9517    2.8049 N   0  0  0  0  0  0  0  0  0  0  0  0
    0.0703   10.4628    1.6029 C   0  0  0  0  0  0  0  0  0  0  0  0
   -0.9296    9.6537   -0.3640 C   0  0  0  0  0  0  0  0  0  0  0  0
    1.3197   10.2321    1.0788 C   0  0  0  0  0  0  0  0  0  0  0  0
    0.3170    9.4185   -0.8972 C   0  0  0  0  0  0  0  0  0  0  0  0
    1.4434    9.7049   -0.1839 C   0  0  0  0  0  0  0  0  0  0  0  0
   -6.6126    8.1584    1.5368 N   0  0  0  0  0  0  0  0  0  0  0  0
   -8.0864    8.3021    1.5569 C   0  0  2  0  0  0  0  0  0  0  0  0
   -8.7191    7.3770    2.5113 C   0  0  0  0  0  0  0  0  0  0  0  0
   -8.1530    6.2686    2.6895 O   0  0  0  0  0  0  0  0  0  0  0  0
   -8.4606    8.0159    0.0948 C   0  0  0  0  0  0  0  0  0  0  0  0
   -8.2898    9.1555   -0.7944 C   0  0  0  0  0  0  0  0  0  0  0  0
   -8.4499    9.1253   -2.1793 C   0  0  0  0  0  0  0  0  0  0  0  0
   -7.9954   10.4549   -0.4823 C   0  0  0  0  0  0  0  0  0  0  0  0
   -8.2569   10.3594   -2.6453 N   0  0  0  0  0  0  0  0  0  0  0  0
   -7.9702   11.2378   -1.6421 C   0  0  0  0  0  0  0  0  0  0  0  0
   -7.7181   11.1435    0.6795 C   0  0  0  0  0  0  0  0  0  0  0  0
   -7.6955   12.5810   -1.6264 C   0  0  0  0  0  0  0  0  0  0  0  0
   -7.4385   12.5000    0.7158 C   0  0  0  0  0  0  0  0  0  0  0  0
   -7.4249   13.2377   -0.4451 C   0  0  0  0  0  0  0  0  0  0  0  0
   -9.9061    7.6978    3.2069 N   0  0  0  0  0  0  0  0  0  0  0  0
  -10.7742    7.0831    4.1247 C   0  0  2  0  0  0  0  0  0  0  0  0
  -10.6635    5.6666    4.4107 C   0  0  0  0  0  0  0  0  0  0  0  0
  -10.8416    4.7978    3.5453 O   0  0  0  0  0  0  0  0  0  0  0  0
  -12.1669    7.4299    3.6013 C   0  0  0  0  0  0  0  0  0  0  0  0
  -11.9290    8.6964    2.8113 C   0  0  0  0  0  0  0  0  0  0  0  0
  -10.4881    9.0630    3.0819 C   0  0  0  0  0  0  0  0  0  0  0  0
  -10.3409    5.1592    5.7222 N   0  0  0  0  0  0  0  0  0  0  0  0
  -10.2228    3.7815    6.0402 C   0  0  2  0  0  0  0  0  0  0  0  0
  -11.5730    3.1072    6.1170 C   0  0  0  0  0  0  0  0  0  0  0  0
  -11.6137    1.7389    6.3246 O   0  0  0  0  0  1  0  0  0  0  0  0
   -9.4449    3.4465    7.2630 C   0  0  0  0  0  0  0  0  0  0  0  0
  -10.2621    3.8496    8.4420 C   0  0  0  0  0  0  0  0  0  0  0  0
  -10.6530    5.1878    8.6578 O   0  0  0  0  0  1  0  0  0  0  0  0
  -10.6491    3.0261    9.3079 O   0  0  0  0  0  0  0  0  0  0  0  0
  -12.6524    3.7251    6.0016 O   0  0  0  0  0  0  0  0  0  0  0  0
  1  2  2  0
  1  3  1  0
  1  4  1  0
  4  5  1  0
  5  6  1  0
  5  8  1  1
  6  7  2  0
  6 12  1  0
  8  9  1  0
  9 10  1  1
  9 11  1  0
 12 13  1  0
 13 14  1  0
 13 16  1  6
 14 15  2  0
 14 26  1  0
 16 17  1  0
 17 18  2  0
 17 19  1  0
 18 20  1  0
 19 21  2  0
 19 22  1  0
 20 21  1  0
 21 23  1  0
 22 24  2  0
 23 25  2  0
 24 25  1  0
 26 27  1  0
 27 28  1  0
 27 30  1  6
 28 29  2  0
 28 40  1  0
 30 31  1  0
 31 32  2  0
 31 33  1  0
 32 34  1  0
 33 35  2  0
 33 36  1  0
 34 35  1  0
 35 37  1  0
 36 38  2  0
 37 39  2  0
 38 39  1  0
 40 41  1  0
 40 46  1  0
 41 42  1  6
 41 44  1  0
 42 43  2  0
 42 47  1  0
 44 45  1  0
 45 46  1  0
 47 48  1  0
 48 49  1  0
 48 51  1  1
 49 50  1  0
 49 55  2  0
 51 52  1  0
 52 53  1  0
 52 54  2  0
M  CHG  2  50  -1  53  -1
M  END
$$$$
