
     RDKit          3D

 55 59  0  0  0  0  0  0  0  0999 V2000
   -3.3796    3.4645    4.4682 C   0  0  0  0  0  0  0  0  0  0  0  0
   -4.5515    3.9134    4.7121 O   0  0  0  0  0  0  0  0  0  0  0  0
   -3.2742    2.3542    3.5203 C   0  0  0  0  0  0  0  0  0  0  0  0
   -2.2535    4.0710    5.1325 N   0  0  0  0  0  0  0  0  0  0  0  0
   -2.4869    5.2135    5.9527 C   0  0  2  0  0  0  0  0  0  0  0  0
   -2.7060    6.4451    5.1779 C   0  0  0  0  0  0  0  0  0  0  0  0
   -1.7830    7.2671    4.9218 O   0  0  0  0  0  0  0  0  0  0  0  0
   -1.3542    5.3918    6.9288 C   0  0  0  0  0  0  0  0  0  0  0  0
   -1.1674    4.3319    7.9483 C   0  0  1  0  0  0  0  0  0  0  0  0
   -0.0268    4.8399    8.8679 C   0  0  0  0  0  0  0  0  0  0  0  0
   -2.3327    4.1009    8.8707 C   0  0  0  0  0  0  0  0  0  0  0  0
   -3.9990    6.7423    4.6843 N   0  0  0  0  0  0  0  0  0  0  0  0
   -4.1436    7.6879    3.5803 C   0  0  2  0  0  0  0  0  0  0  0  0
   -5.5203    7.9470    3.1830 C   0  0  0  0  0  0  0  0  0  0  0  0
   -5.8102    8.5690    2.0966 O   0  0  0  0  0  0  0  0  0  0  0  0
   -3.1907    7.3042    2.4643 C   0  0  0  0  0  0  0  0  0  0  0  0
   -1.9149    8.0065    2.4721 C   0  0  0  0  0  0  0  0  0  0  0  0
   -0.6574    7.4929    2.8092 C   0  0  0  0  0  0  0  0  0  0  0  0
   -1.6765    9.3318    2.1945 C   0  0  0  0  0  0  0  0  0  0  0  0
    0.2728    8.4364    2.7419 N   0  0  0  0  0  0  0  0  0  0  0  0
   -0.3185    9.5783    2.3675 C   0  0  0  0  0  0  0  0  0  0  0  0
   -2.4358   10.4183    1.7890 C   0  0  0  0  0  0  0  0  0  0  0  0
    0.2445   10.8141    2.1557 C   0  0  0  0  0  0  0  0  0  0  0  0
   -1.8812   11.6593    1.5737 C   0  0  0  0  0  0  0  0  0  0  0  0
   -0.5454   11.8644    1.7551 C   0  0  0  0  0  0  0  0  0  0  0  0
   -6.6871    7.5548    3.9228 N   0  0  0  0  0  0  0  0  0  0  0  0
   -7.9421    7.1908    3.2259 C   0  0  2  0  0  0  0  0  0  0  0  0
   -7.8811    7.4885    1.7856 C   0  0  0  0  0  0  0  0  0  0  0  0
   -7.7978    8.6995    1.4581 O   0  0  0  0  0  0  0  0  0  0  0  0
   -8.9858    8.0320    3.9762 C   0  0  0  0  0  0  0  0  0  0  0  0
   -9.1721    7.6430    5.3662 C   0  0  0  0  0  0  0  0  0  0  0  0
   -8.7519    8.3826    6.4711 C   0  0  0  0  0  0  0  0  0  0  0  0
   -9.8099    6.5444    5.8751 C   0  0  0  0  0  0  0  0  0  0  0  0
   -9.1345    7.7357    7.5723 N   0  0  0  0  0  0  0  0  0  0  0  0
   -9.7992    6.5826    7.2740 C   0  0  0  0  0  0  0  0  0  0  0  0
  -10.4335    5.4385    5.3373 C   0  0  0  0  0  0  0  0  0  0  0  0
  -10.3648    5.6031    8.0488 C   0  0  0  0  0  0  0  0  0  0  0  0
  -11.0108    4.4386    6.1032 C   0  0  0  0  0  0  0  0  0  0  0  0
  -10.9825    4.5119    7.4764 C   0  0  0  0  0  0  0  0  0  0  0  0
   -7.9119    6.4776    0.7992 N   0  0  0  0  0  0  0  0  0  0  0  0
   -8.1774    6.3723   -0.5765 C   0  0  2  0  0  0  0  0  0  0  0  0
   -8.7644    7.4811   -1.3020 C   0  0  0  0  0  0  0  0  0  0  0  0
   -8.5674    7.6627   -2.5118 O   0  0  0  0  0  0  0  0  0  0  0  0
   -9.0477    5.1218   -0.6874 C   0  0  0  0  0  0  0  0  0  0  0  0
   -8.6668    4.3305    0.5428 C   0  0  0  0  0  0  0  0  0  0  0  0
   -7.5109    5.0880    1.1543 C   0  0  0  0  0  0  0  0  0  0  0  0
   -9.6191    8.4587   -0.6732 N   0  0  0  0  0  0  0  0  0  0  0  0
  -10.2270    9.5454   -1.3534 C   0  0  2  0  0  0  0  0  0  0  0  0
   -9.9885   10.8560   -0.6400 C   0  0  0  0  0  0  0  0  0  0  0  0
   -9.2863   10.8369    0.5531 O   0  0  0  0  0  1  0  0  0  0  0  0
  -11.6784    9.4142   -1.6511 C   0  0  0  0  0  0  0  0  0  0  0  0
  -12.3752    9.1042   -0.3710 C   0  0  0  0  0  0  0  0  0  0  0  0
  -11.6705    8.7218    0.7897 O   0  0  0  0  0  1  0  0  0  0  0  0
  -13.6241    9.1652   -0.2508 O   0  0  0  0  0  0  0  0  0  0  0  0
  -10.3950   11.9541   -1.0749 O   0  0  0  0  0  0  0  0  0  0  0  0
  1  2  2  0
  1  3  1  0
  1  4  1  0
  4  5  1  0
  5  6  1  0
  5  8  1  1
  6  7  2  0
  6 12  1  0
  8  9  1  0
  9 10  1  1
  9 11  1  0
 12 13  1  0
 13 14  1  0
 13 16  1  6
 14 15  2  0
 14 26  1  0
 16 17  1  0
 17 18  2  0
 17 19  1  0
 18 20  1  0
 19 21  2  0
 19 22  1  0
 20 21  1  0
 21 23  1  0
 22 24  2  0
 23 25  2  0
 24 25  1  0
 26 27  1  0
 27 28  1  0
 27 30  1  1
 28 29  2  0
 28 40  1  0
 30 31  1  0
 31 32  2  0
 31 33  1  0
 32 34  1  0
 33 35  2  0
 33 36  1  0
 34 35  1  0
 35 37  1  0
 36 38  2  0
 37 39  2  0
 38 39  1  0
 40 41  1  0
 40 46  1  0
 41 42  1  1
 41 44  1  0
 42 43  2  0
 42 47  1  0
 44 45  1  0
 45 46  1  0
 47 48  1  0
 48 49  1  0
 48 51  1  1
 49 50  1  0
 49 55  2  0
 51 52  1  0
 52 53  1  0
 52 54  2  0
M  CHG  2  50  -1  53  -1
M  END
$$$$
