
     RDKit          3D

 55 59  0  0  0  0  0  0  0  0999 V2000
   -3.6662    9.6947   -1.3671 C   0  0  0  0  0  0  0  0  0  0  0  0
   -4.1225    8.6592   -0.7723 O   0  0  0  0  0  0  0  0  0  0  0  0
   -2.2116    9.8140   -1.4777 C   0  0  0  0  0  0  0  0  0  0  0  0
   -4.5992   10.6646   -1.8830 N   0  0  0  0  0  0  0  0  0  0  0  0
   -5.3485   11.4435   -0.9532 C   0  0  2  0  0  0  0  0  0  0  0  0
   -6.3952   10.6715   -0.2651 C   0  0  0  0  0  0  0  0  0  0  0  0
   -6.9520   11.0666    0.7967 O   0  0  0  0  0  0  0  0  0  0  0  0
   -5.9379   12.6468   -1.6404 C   0  0  0  0  0  0  0  0  0  0  0  0
   -5.0002   13.5393   -2.3629 C   0  0  1  0  0  0  0  0  0  0  0  0
   -5.8966   14.5131   -3.1708 C   0  0  0  0  0  0  0  0  0  0  0  0
   -4.1475   14.4270   -1.4986 C   0  0  0  0  0  0  0  0  0  0  0  0
   -6.8160    9.4297   -0.7986 N   0  0  0  0  0  0  0  0  0  0  0  0
   -7.8350    8.6563   -0.0933 C   0  0  2  0  0  0  0  0  0  0  0  0
   -7.3237    7.8314    0.9923 C   0  0  0  0  0  0  0  0  0  0  0  0
   -7.0242    6.5932    0.8240 O   0  0  0  0  0  0  0  0  0  0  0  0
   -8.7176    7.9508   -1.1053 C   0  0  0  0  0  0  0  0  0  0  0  0
   -9.8003    7.1602   -0.5363 C   0  0  0  0  0  0  0  0  0  0  0  0
  -10.0713    5.8034   -0.7470 C   0  0  0  0  0  0  0  0  0  0  0  0
  -10.8126    7.5834    0.2921 C   0  0  0  0  0  0  0  0  0  0  0  0
  -11.1661    5.4327   -0.0960 N   0  0  0  0  0  0  0  0  0  0  0  0
  -11.6470    6.5014    0.5525 C   0  0  0  0  0  0  0  0  0  0  0  0
  -11.1663    8.7744    0.9071 C   0  0  0  0  0  0  0  0  0  0  0  0
  -12.7534    6.5952    1.3624 C   0  0  0  0  0  0  0  0  0  0  0  0
  -12.2717    8.8781    1.7202 C   0  0  0  0  0  0  0  0  0  0  0  0
  -13.0682    7.7958    1.9515 C   0  0  0  0  0  0  0  0  0  0  0  0
   -7.0948    8.2769    2.3382 N   0  0  0  0  0  0  0  0  0  0  0  0
   -6.1356    7.5721    3.2193 C   0  0  2  0  0  0  0  0  0  0  0  0
   -6.8166    6.7299    4.2163 C   0  0  0  0  0  0  0  0  0  0  0  0
   -7.7121    7.2784    4.9078 O   0  0  0  0  0  0  0  0  0  0  0  0
   -5.3510    8.7365    3.8423 C   0  0  0  0  0  0  0  0  0  0  0  0
   -4.0189    8.9188    3.2848 C   0  0  0  0  0  0  0  0  0  0  0  0
   -3.7261    9.0443    1.9272 C   0  0  0  0  0  0  0  0  0  0  0  0
   -2.8227    9.0482    3.9367 C   0  0  0  0  0  0  0  0  0  0  0  0
   -2.4132    9.2401    1.8033 N   0  0  0  0  0  0  0  0  0  0  0  0
   -1.7890    9.2540    3.0159 C   0  0  0  0  0  0  0  0  0  0  0  0
   -2.4175    9.0139    5.2541 C   0  0  0  0  0  0  0  0  0  0  0  0
   -0.4799    9.4122    3.3912 C   0  0  0  0  0  0  0  0  0  0  0  0
   -1.1001    9.1718    5.6530 C   0  0  0  0  0  0  0  0  0  0  0  0
   -0.1112    9.3746    4.7188 C   0  0  0  0  0  0  0  0  0  0  0  0
   -6.4969    5.3668    4.4047 N   0  0  0  0  0  0  0  0  0  0  0  0
   -6.8965    4.3086    5.2381 C   0  0  2  0  0  0  0  0  0  0  0  0
   -7.7352    4.5556    6.3939 C   0  0  0  0  0  0  0  0  0  0  0  0
   -8.4265    3.6692    6.9152 O   0  0  0  0  0  0  0  0  0  0  0  0
   -5.5818    3.6460    5.6456 C   0  0  0  0  0  0  0  0  0  0  0  0
   -4.6465    4.0218    4.5192 C   0  0  0  0  0  0  0  0  0  0  0  0
   -5.5217    4.7053    3.4941 C   0  0  0  0  0  0  0  0  0  0  0  0
   -7.8324    5.8499    7.0240 N   0  0  0  0  0  0  0  0  0  0  0  0
   -8.7113    6.1540    8.0956 C   0  0  2  0  0  0  0  0  0  0  0  0
   -9.5176    7.4022    7.8209 C   0  0  0  0  0  0  0  0  0  0  0  0
  -10.7700    7.2629    7.2470 O   0  0  0  0  0  1  0  0  0  0  0  0
   -8.0989    6.2617    9.4467 C   0  0  0  0  0  0  0  0  0  0  0  0
   -6.9881    7.2512    9.3609 C   0  0  0  0  0  0  0  0  0  0  0  0
   -6.4600    7.6762    8.1238 O   0  0  0  0  0  1  0  0  0  0  0  0
   -6.4600    7.7626   10.3794 O   0  0  0  0  0  0  0  0  0  0  0  0
   -9.1079    8.5519    8.0862 O   0  0  0  0  0  0  0  0  0  0  0  0
  1  2  2  0
  1  3  1  0
  1  4  1  0
  4  5  1  0
  5  6  1  0
  5  8  1  6
  6  7  2  0
  6 12  1  0
  8  9  1  0
  9 10  1  6
  9 11  1  0
 12 13  1  0
 13 14  1  0
 13 16  1  6
 14 15  2  0
 14 26  1  0
 16 17  1  0
 17 18  2  0
 17 19  1  0
 18 20  1  0
 19 21  2  0
 19 22  1  0
 20 21  1  0
 21 23  1  0
 22 24  2  0
 23 25  2  0
 24 25  1  0
 26 27  1  0
 27 28  1  0
 27 30  1  1
 28 29  2  0
 28 40  1  0
 30 31  1  0
 31 32  2  0
 31 33  1  0
 32 34  1  0
 33 35  2  0
 33 36  1  0
 34 35  1  0
 35 37  1  0
 36 38  2  0
 37 39  2  0
 38 39  1  0
 40 41  1  0
 40 46  1  0
 41 42  1  1
 41 44  1  0
 42 43  2  0
 42 47  1  0
 44 45  1  0
 45 46  1  0
 47 48  1  0
 48 49  1  0
 48 51  1  1
 49 50  1  0
 49 55  2  0
 51 52  1  0
 52 53  1  0
 52 54  2  0
M  CHG  2  50  -1  53  -1
M  END
$$$$
