
     RDKit          3D

 55 59  0  0  0  0  0  0  0  0999 V2000
   -3.7102   10.7792   -1.9951 C   0  0  0  0  0  0  0  0  0  0  0  0
   -4.0094    9.9392   -2.9111 O   0  0  0  0  0  0  0  0  0  0  0  0
   -2.3463   11.3103   -1.9964 C   0  0  0  0  0  0  0  0  0  0  0  0
   -4.7198   11.1443   -1.0334 N   0  0  0  0  0  0  0  0  0  0  0  0
   -5.7723   10.2185   -0.7732 C   0  0  2  0  0  0  0  0  0  0  0  0
   -5.3067    8.9832   -0.1233 C   0  0  0  0  0  0  0  0  0  0  0  0
   -4.7667    8.0358   -0.7591 O   0  0  0  0  0  0  0  0  0  0  0  0
   -6.5142    9.9050   -2.0455 C   0  0  0  0  0  0  0  0  0  0  0  0
   -7.2541   11.0173   -2.6881 C   0  0  1  0  0  0  0  0  0  0  0  0
   -8.1239   10.3542   -3.7873 C   0  0  0  0  0  0  0  0  0  0  0  0
   -8.2331   11.7445   -1.8078 C   0  0  0  0  0  0  0  0  0  0  0  0
   -5.4569    8.8272    1.2756 N   0  0  0  0  0  0  0  0  0  0  0  0
   -4.8746    7.6593    1.9320 C   0  0  2  0  0  0  0  0  0  0  0  0
   -5.2575    7.4969    3.3275 C   0  0  0  0  0  0  0  0  0  0  0  0
   -4.5873    6.7564    4.1360 O   0  0  0  0  0  0  0  0  0  0  0  0
   -3.3867    7.6114    1.6411 C   0  0  0  0  0  0  0  0  0  0  0  0
   -2.6284    8.7643    2.1065 C   0  0  0  0  0  0  0  0  0  0  0  0
   -3.0773   10.0819    2.2514 C   0  0  0  0  0  0  0  0  0  0  0  0
   -1.3010    8.8176    2.4604 C   0  0  0  0  0  0  0  0  0  0  0  0
   -2.0954   10.8742    2.6613 N   0  0  0  0  0  0  0  0  0  0  0  0
   -0.9902   10.1303    2.7995 C   0  0  0  0  0  0  0  0  0  0  0  0
   -0.2593    7.9090    2.5655 C   0  0  0  0  0  0  0  0  0  0  0  0
    0.2639   10.5138    3.2108 C   0  0  0  0  0  0  0  0  0  0  0  0
    0.9995    8.2831    2.9769 C   0  0  0  0  0  0  0  0  0  0  0  0
    1.2681    9.5804    3.2999 C   0  0  0  0  0  0  0  0  0  0  0  0
   -6.3876    8.1200    3.9575 N   0  0  0  0  0  0  0  0  0  0  0  0
   -7.4257    7.3071    4.6318 C   0  0  2  0  0  0  0  0  0  0  0  0
   -8.3599    6.6966    3.6718 C   0  0  0  0  0  0  0  0  0  0  0  0
   -8.3743    7.1752    2.5092 O   0  0  0  0  0  0  0  0  0  0  0  0
   -8.0926    8.3353    5.5579 C   0  0  0  0  0  0  0  0  0  0  0  0
   -8.1195    7.9412    6.9588 C   0  0  0  0  0  0  0  0  0  0  0  0
   -6.9951    7.7332    7.7569 C   0  0  0  0  0  0  0  0  0  0  0  0
   -9.1982    7.7425    7.7770 C   0  0  0  0  0  0  0  0  0  0  0  0
   -7.4108    7.4286    8.9865 N   0  0  0  0  0  0  0  0  0  0  0  0
   -8.7721    7.4169    9.0698 C   0  0  0  0  0  0  0  0  0  0  0  0
  -10.5672    7.7808    7.6180 C   0  0  0  0  0  0  0  0  0  0  0  0
   -9.6432    7.1598   10.0968 C   0  0  0  0  0  0  0  0  0  0  0  0
  -11.4633    7.5244    8.6432 C   0  0  0  0  0  0  0  0  0  0  0  0
  -11.0069    7.2097    9.9020 C   0  0  0  0  0  0  0  0  0  0  0  0
   -9.2095    5.6220    4.0172 N   0  0  0  0  0  0  0  0  0  0  0  0
   -9.1165    4.3999    4.7041 C   0  0  2  0  0  0  0  0  0  0  0  0
   -7.8246    3.8581    5.0752 C   0  0  0  0  0  0  0  0  0  0  0  0
   -6.7583    4.3920    4.7386 O   0  0  0  0  0  0  0  0  0  0  0  0
   -9.8879    3.4222    3.8194 C   0  0  0  0  0  0  0  0  0  0  0  0
  -10.8352    4.3230    3.0605 C   0  0  0  0  0  0  0  0  0  0  0  0
  -10.6586    5.6897    3.6807 C   0  0  0  0  0  0  0  0  0  0  0  0
   -7.6798    2.6567    5.8609 N   0  0  0  0  0  0  0  0  0  0  0  0
   -6.4336    2.0890    6.2322 C   0  0  2  0  0  0  0  0  0  0  0  0
   -6.5979    0.6936    6.7887 C   0  0  0  0  0  0  0  0  0  0  0  0
   -7.8793    0.2313    7.0365 O   0  0  0  0  0  1  0  0  0  0  0  0
   -5.5927    2.8855    7.1654 C   0  0  0  0  0  0  0  0  0  0  0  0
   -6.4387    3.2484    8.3371 C   0  0  0  0  0  0  0  0  0  0  0  0
   -7.8476    3.2601    8.2664 O   0  0  0  0  0  1  0  0  0  0  0  0
   -5.9498    3.5629    9.4506 O   0  0  0  0  0  0  0  0  0  0  0  0
   -5.6337   -0.0609    7.0358 O   0  0  0  0  0  0  0  0  0  0  0  0
  1  2  2  0
  1  3  1  0
  1  4  1  0
  4  5  1  0
  5  6  1  0
  5  8  1  6
  6  7  2  0
  6 12  1  0
  8  9  1  0
  9 10  1  6
  9 11  1  0
 12 13  1  0
 13 14  1  0
 13 16  1  1
 14 15  2  0
 14 26  1  0
 16 17  1  0
 17 18  2  0
 17 19  1  0
 18 20  1  0
 19 21  2  0
 19 22  1  0
 20 21  1  0
 21 23  1  0
 22 24  2  0
 23 25  2  0
 24 25  1  0
 26 27  1  0
 27 28  1  0
 27 30  1  1
 28 29  2  0
 28 40  1  0
 30 31  1  0
 31 32  2  0
 31 33  1  0
 32 34  1  0
 33 35  2  0
 33 36  1  0
 34 35  1  0
 35 37  1  0
 36 38  2  0
 37 39  2  0
 38 39  1  0
 40 41  1  0
 40 46  1  0
 41 42  1  6
 41 44  1  0
 42 43  2  0
 42 47  1  0
 44 45  1  0
 45 46  1  0
 47 48  1  0
 48 49  1  0
 48 51  1  1
 49 50  1  0
 49 55  2  0
 51 52  1  0
 52 53  1  0
 52 54  2  0
M  CHG  2  50  -1  53  -1
M  END
$$$$
