
     RDKit          3D

 55 59  0  0  0  0  0  0  0  0999 V2000
   -2.3932    5.2396   -2.4949 C   0  0  0  0  0  0  0  0  0  0  0  0
   -3.2702    4.3432   -2.2468 O   0  0  0  0  0  0  0  0  0  0  0  0
   -2.0984    5.5133   -3.9023 C   0  0  0  0  0  0  0  0  0  0  0  0
   -1.7596    5.9134   -1.3896 N   0  0  0  0  0  0  0  0  0  0  0  0
   -2.2615    5.6777   -0.0762 C   0  0  2  0  0  0  0  0  0  0  0  0
   -3.7021    5.9507    0.0487 C   0  0  0  0  0  0  0  0  0  0  0  0
   -4.2107    7.0776   -0.2059 O   0  0  0  0  0  0  0  0  0  0  0  0
   -1.4778    6.4779    0.9303 C   0  0  0  0  0  0  0  0  0  0  0  0
   -0.0138    6.2506    0.9822 C   0  0  1  0  0  0  0  0  0  0  0  0
    0.5204    7.2412    2.0489 C   0  0  0  0  0  0  0  0  0  0  0  0
    0.4193    4.8935    1.4648 C   0  0  0  0  0  0  0  0  0  0  0  0
   -4.5773    4.9202    0.4679 N   0  0  0  0  0  0  0  0  0  0  0  0
   -5.9702    5.2424    0.7680 C   0  0  2  0  0  0  0  0  0  0  0  0
   -6.1578    6.4835    1.5061 C   0  0  0  0  0  0  0  0  0  0  0  0
   -7.2535    7.1521    1.4472 O   0  0  0  0  0  0  0  0  0  0  0  0
   -6.6548    4.0171    1.3431 C   0  0  0  0  0  0  0  0  0  0  0  0
   -7.2018    3.0950    0.3575 C   0  0  0  0  0  0  0  0  0  0  0  0
   -6.9109    1.7346    0.2044 C   0  0  0  0  0  0  0  0  0  0  0  0
   -8.0847    3.3694   -0.6600 C   0  0  0  0  0  0  0  0  0  0  0  0
   -7.5674    1.2234   -0.8288 N   0  0  0  0  0  0  0  0  0  0  0  0
   -8.2977    2.2002   -1.3827 C   0  0  0  0  0  0  0  0  0  0  0  0
   -8.7859    4.4815   -1.0995 C   0  0  0  0  0  0  0  0  0  0  0  0
   -9.1434    2.1396   -2.4643 C   0  0  0  0  0  0  0  0  0  0  0  0
   -9.6354    4.4308   -2.1810 C   0  0  0  0  0  0  0  0  0  0  0  0
   -9.8183    3.2665   -2.8669 C   0  0  0  0  0  0  0  0  0  0  0  0
   -5.1823    7.0966    2.3636 N   0  0  0  0  0  0  0  0  0  0  0  0
   -5.4857    8.3560    3.0812 C   0  0  2  0  0  0  0  0  0  0  0  0
   -6.4952    8.1625    4.1350 C   0  0  0  0  0  0  0  0  0  0  0  0
   -7.6475    7.8238    3.7634 O   0  0  0  0  0  0  0  0  0  0  0  0
   -5.9633    9.2710    1.9434 C   0  0  0  0  0  0  0  0  0  0  0  0
   -6.0201   10.6807    2.3011 C   0  0  0  0  0  0  0  0  0  0  0  0
   -4.9266   11.4583    2.6805 C   0  0  0  0  0  0  0  0  0  0  0  0
   -7.0956   11.5269    2.2998 C   0  0  0  0  0  0  0  0  0  0  0  0
   -5.3559   12.7034    2.8876 N   0  0  0  0  0  0  0  0  0  0  0  0
   -6.6973   12.8170    2.6683 C   0  0  0  0  0  0  0  0  0  0  0  0
   -8.4423   11.3973    2.0345 C   0  0  0  0  0  0  0  0  0  0  0  0
   -7.5726   13.8686    2.7556 C   0  0  0  0  0  0  0  0  0  0  0  0
   -9.3421   12.4476    2.1170 C   0  0  0  0  0  0  0  0  0  0  0  0
   -8.9130   13.7029    2.4805 C   0  0  0  0  0  0  0  0  0  0  0  0
   -6.2058    8.3421    5.5061 N   0  0  0  0  0  0  0  0  0  0  0  0
   -6.7507    7.9624    6.7442 C   0  0  2  0  0  0  0  0  0  0  0  0
   -8.0689    7.3646    6.8183 C   0  0  0  0  0  0  0  0  0  0  0  0
   -8.5085    6.8515    7.8569 O   0  0  0  0  0  0  0  0  0  0  0  0
   -6.6782    9.2369    7.5832 C   0  0  0  0  0  0  0  0  0  0  0  0
   -5.5526   10.0093    6.9342 C   0  0  0  0  0  0  0  0  0  0  0  0
   -4.9677    9.0644    5.9101 C   0  0  0  0  0  0  0  0  0  0  0  0
   -8.9681    7.3181    5.6909 N   0  0  0  0  0  0  0  0  0  0  0  0
  -10.2403    6.6902    5.7078 C   0  0  2  0  0  0  0  0  0  0  0  0
  -10.1276    5.2043    5.9592 C   0  0  0  0  0  0  0  0  0  0  0  0
   -9.4968    4.4223    5.0065 O   0  0  0  0  0  1  0  0  0  0  0  0
  -11.1077    6.9151    4.5206 C   0  0  0  0  0  0  0  0  0  0  0  0
  -10.8495    8.2978    4.0288 C   0  0  0  0  0  0  0  0  0  0  0  0
  -10.3854    8.5512    2.7209 O   0  0  0  0  0  1  0  0  0  0  0  0
  -11.0295    9.3134    4.7457 O   0  0  0  0  0  0  0  0  0  0  0  0
  -10.5767    4.6492    6.9841 O   0  0  0  0  0  0  0  0  0  0  0  0
  1  2  2  0
  1  3  1  0
  1  4  1  0
  4  5  1  0
  5  6  1  0
  5  8  1  1
  6  7  2  0
  6 12  1  0
  8  9  1  0
  9 10  1  1
  9 11  1  0
 12 13  1  0
 13 14  1  0
 13 16  1  1
 14 15  2  0
 14 26  1  0
 16 17  1  0
 17 18  2  0
 17 19  1  0
 18 20  1  0
 19 21  2  0
 19 22  1  0
 20 21  1  0
 21 23  1  0
 22 24  2  0
 23 25  2  0
 24 25  1  0
 26 27  1  0
 27 28  1  0
 27 30  1  6
 28 29  2  0
 28 40  1  0
 30 31  1  0
 31 32  2  0
 31 33  1  0
 32 34  1  0
 33 35  2  0
 33 36  1  0
 34 35  1  0
 35 37  1  0
 36 38  2  0
 37 39  2  0
 38 39  1  0
 40 41  1  0
 40 46  1  0
 41 42  1  6
 41 44  1  0
 42 43  2  0
 42 47  1  0
 44 45  1  0
 45 46  1  0
 47 48  1  0
 48 49  1  0
 48 51  1  6
 49 50  1  0
 49 55  2  0
 51 52  1  0
 52 53  1  0
 52 54  2  0
M  CHG  2  50  -1  53  -1
M  END
$$$$
