
     RDKit          3D

 55 59  0  0  0  0  0  0  0  0999 V2000
   -4.6532    7.7484    7.7371 C   0  0  0  0  0  0  0  0  0  0  0  0
   -3.7682    6.8273    7.6867 O   0  0  0  0  0  0  0  0  0  0  0  0
   -4.1768    9.1324    7.7334 C   0  0  0  0  0  0  0  0  0  0  0  0
   -6.0431    7.3713    7.7937 N   0  0  0  0  0  0  0  0  0  0  0  0
   -6.3752    5.9909    7.6642 C   0  0  2  0  0  0  0  0  0  0  0  0
   -7.2102    5.7063    6.4865 C   0  0  0  0  0  0  0  0  0  0  0  0
   -7.6288    4.5487    6.2066 O   0  0  0  0  0  0  0  0  0  0  0  0
   -7.0402    5.4968    8.9216 C   0  0  0  0  0  0  0  0  0  0  0  0
   -7.9192    6.4498    9.6406 C   0  0  1  0  0  0  0  0  0  0  0  0
   -8.4080    7.4534    8.5644 C   0  0  0  0  0  0  0  0  0  0  0  0
   -9.1769    5.8656   10.2230 C   0  0  0  0  0  0  0  0  0  0  0  0
   -7.5764    6.7601    5.6153 N   0  0  0  0  0  0  0  0  0  0  0  0
   -7.4143    6.5861    4.1740 C   0  0  2  0  0  0  0  0  0  0  0  0
   -6.5308    7.5569    3.5437 C   0  0  0  0  0  0  0  0  0  0  0  0
   -6.4402    8.7682    3.9628 O   0  0  0  0  0  0  0  0  0  0  0  0
   -8.7787    6.4152    3.5337 C   0  0  0  0  0  0  0  0  0  0  0  0
   -9.7458    5.6710    4.3286 C   0  0  0  0  0  0  0  0  0  0  0  0
  -10.6208    6.1709    5.2997 C   0  0  0  0  0  0  0  0  0  0  0  0
   -9.9766    4.3157    4.3298 C   0  0  0  0  0  0  0  0  0  0  0  0
  -11.3281    5.1919    5.8487 N   0  0  0  0  0  0  0  0  0  0  0  0
  -10.9574    4.0390    5.2764 C   0  0  0  0  0  0  0  0  0  0  0  0
   -9.4926    3.2208    3.6309 C   0  0  0  0  0  0  0  0  0  0  0  0
  -11.4224    2.7677    5.5138 C   0  0  0  0  0  0  0  0  0  0  0  0
   -9.9522    1.9442    3.8610 C   0  0  0  0  0  0  0  0  0  0  0  0
  -10.9141    1.7104    4.7988 C   0  0  0  0  0  0  0  0  0  0  0  0
   -5.6780    7.2970    2.4178 N   0  0  0  0  0  0  0  0  0  0  0  0
   -5.1229    8.4087    1.6121 C   0  0  2  0  0  0  0  0  0  0  0  0
   -5.9939    8.7579    0.4779 C   0  0  0  0  0  0  0  0  0  0  0  0
   -6.5720    7.8081   -0.1089 O   0  0  0  0  0  0  0  0  0  0  0  0
   -3.7596    7.8477    1.1805 C   0  0  0  0  0  0  0  0  0  0  0  0
   -2.8115    7.6889    2.2733 C   0  0  0  0  0  0  0  0  0  0  0  0
   -2.9549    6.8013    3.3392 C   0  0  0  0  0  0  0  0  0  0  0  0
   -1.6067    8.3089    2.4653 C   0  0  0  0  0  0  0  0  0  0  0  0
   -1.8742    6.9054    4.1130 N   0  0  0  0  0  0  0  0  0  0  0  0
   -0.9933    7.8263    3.6270 C   0  0  0  0  0  0  0  0  0  0  0  0
   -0.8875    9.2777    1.7982 C   0  0  0  0  0  0  0  0  0  0  0  0
    0.2251    8.2764    4.0661 C   0  0  0  0  0  0  0  0  0  0  0  0
    0.3446    9.7452    2.2258 C   0  0  0  0  0  0  0  0  0  0  0  0
    0.9176    9.2451    3.3719 C   0  0  0  0  0  0  0  0  0  0  0  0
   -6.1874   10.0907    0.0512 N   0  0  0  0  0  0  0  0  0  0  0  0
   -6.6735   10.7609   -1.0840 C   0  0  2  0  0  0  0  0  0  0  0  0
   -6.9259   10.0396   -2.3154 C   0  0  0  0  0  0  0  0  0  0  0  0
   -6.3200   10.2878   -3.3673 O   0  0  0  0  0  0  0  0  0  0  0  0
   -5.6655   11.8873   -1.3047 C   0  0  0  0  0  0  0  0  0  0  0  0
   -5.0779   12.0943    0.0726 C   0  0  0  0  0  0  0  0  0  0  0  0
   -5.8990   11.2137    0.9859 C   0  0  0  0  0  0  0  0  0  0  0  0
   -7.9017    8.9812   -2.4127 N   0  0  0  0  0  0  0  0  0  0  0  0
   -8.1506    8.2283   -3.5892 C   0  0  2  0  0  0  0  0  0  0  0  0
   -8.7452    9.0825   -4.6848 C   0  0  0  0  0  0  0  0  0  0  0  0
   -8.5146    8.7184   -6.0007 O   0  0  0  0  0  1  0  0  0  0  0  0
   -8.9768    7.0017   -3.4304 C   0  0  0  0  0  0  0  0  0  0  0  0
  -10.0691    7.3153   -2.4666 C   0  0  0  0  0  0  0  0  0  0  0  0
  -10.1631    8.5685   -1.8256 O   0  0  0  0  0  1  0  0  0  0  0  0
  -10.9657    6.4869   -2.1702 O   0  0  0  0  0  0  0  0  0  0  0  0
   -9.4334   10.1003   -4.4597 O   0  0  0  0  0  0  0  0  0  0  0  0
  1  2  2  0
  1  3  1  0
  1  4  1  0
  4  5  1  0
  5  6  1  0
  5  8  1  1
  6  7  2  0
  6 12  1  0
  8  9  1  0
  9 10  1  6
  9 11  1  0
 12 13  1  0
 13 14  1  0
 13 16  1  6
 14 15  2  0
 14 26  1  0
 16 17  1  0
 17 18  2  0
 17 19  1  0
 18 20  1  0
 19 21  2  0
 19 22  1  0
 20 21  1  0
 21 23  1  0
 22 24  2  0
 23 25  2  0
 24 25  1  0
 26 27  1  0
 27 28  1  0
 27 30  1  6
 28 29  2  0
 28 40  1  0
 30 31  1  0
 31 32  2  0
 31 33  1  0
 32 34  1  0
 33 35  2  0
 33 36  1  0
 34 35  1  0
 35 37  1  0
 36 38  2  0
 37 39  2  0
 38 39  1  0
 40 41  1  0
 40 46  1  0
 41 42  1  6
 41 44  1  0
 42 43  2  0
 42 47  1  0
 44 45  1  0
 45 46  1  0
 47 48  1  0
 48 49  1  0
 48 51  1  1
 49 50  1  0
 49 55  2  0
 51 52  1  0
 52 53  1  0
 52 54  2  0
M  CHG  2  50  -1  53  -1
M  END
$$$$
