
     RDKit          3D

 55 59  0  0  0  0  0  0  0  0999 V2000
   -4.3445    4.4818    1.5766 C   0  0  0  0  0  0  0  0  0  0  0  0
   -4.0984    4.0292    2.7466 O   0  0  0  0  0  0  0  0  0  0  0  0
   -5.1115    3.6202    0.6756 C   0  0  0  0  0  0  0  0  0  0  0  0
   -3.8581    5.7919    1.2242 N   0  0  0  0  0  0  0  0  0  0  0  0
   -3.1920    6.5580    2.2252 C   0  0  2  0  0  0  0  0  0  0  0  0
   -4.1189    7.2305    3.1492 C   0  0  0  0  0  0  0  0  0  0  0  0
   -3.8533    7.4209    4.3685 O   0  0  0  0  0  0  0  0  0  0  0  0
   -2.2622    7.5537    1.5837 C   0  0  0  0  0  0  0  0  0  0  0  0
   -1.0892    7.0121    0.8568 C   0  0  1  0  0  0  0  0  0  0  0  0
   -0.4582    8.2267    0.1280 C   0  0  0  0  0  0  0  0  0  0  0  0
    0.0150    6.4623    1.7173 C   0  0  0  0  0  0  0  0  0  0  0  0
   -5.3682    7.6963    2.6738 N   0  0  0  0  0  0  0  0  0  0  0  0
   -6.2578    8.4138    3.5836 C   0  0  2  0  0  0  0  0  0  0  0  0
   -7.5863    8.6758    3.0482 C   0  0  0  0  0  0  0  0  0  0  0  0
   -7.7619    9.2534    1.9139 O   0  0  0  0  0  0  0  0  0  0  0  0
   -5.5254    9.6107    4.1597 C   0  0  0  0  0  0  0  0  0  0  0  0
   -4.2302    9.8920    3.5562 C   0  0  0  0  0  0  0  0  0  0  0  0
   -2.9803    9.3946    3.9421 C   0  0  0  0  0  0  0  0  0  0  0  0
   -3.9500   10.7382    2.5095 C   0  0  0  0  0  0  0  0  0  0  0  0
   -2.0151    9.9021    3.1865 N   0  0  0  0  0  0  0  0  0  0  0  0
   -2.5755   10.7315    2.2965 C   0  0  0  0  0  0  0  0  0  0  0  0
   -4.6851   11.5430    1.6531 C   0  0  0  0  0  0  0  0  0  0  0  0
   -1.9739   11.4716    1.3069 C   0  0  0  0  0  0  0  0  0  0  0  0
   -4.0921   12.2873    0.6589 C   0  0  0  0  0  0  0  0  0  0  0  0
   -2.7405   12.2572    0.4806 C   0  0  0  0  0  0  0  0  0  0  0  0
   -8.8242    8.3344    3.6914 N   0  0  0  0  0  0  0  0  0  0  0  0
   -9.6556    7.2145    3.1940 C   0  0  2  0  0  0  0  0  0  0  0  0
   -9.6480    6.0678    4.1171 C   0  0  0  0  0  0  0  0  0  0  0  0
   -9.2432    4.9699    3.6571 O   0  0  0  0  0  0  0  0  0  0  0  0
   -9.0058    6.9056    1.8367 C   0  0  0  0  0  0  0  0  0  0  0  0
   -9.7717    7.3769    0.6923 C   0  0  0  0  0  0  0  0  0  0  0  0
  -10.1154    6.6056   -0.4174 C   0  0  0  0  0  0  0  0  0  0  0  0
  -10.3372    8.6050    0.4810 C   0  0  0  0  0  0  0  0  0  0  0  0
  -10.8512    7.3600   -1.2342 N   0  0  0  0  0  0  0  0  0  0  0  0
  -11.0285    8.6171   -0.7358 C   0  0  0  0  0  0  0  0  0  0  0  0
  -10.3709    9.7984    1.1707 C   0  0  0  0  0  0  0  0  0  0  0  0
  -11.6891    9.7234   -1.2043 C   0  0  0  0  0  0  0  0  0  0  0  0
  -11.0328   10.9266    0.7140 C   0  0  0  0  0  0  0  0  0  0  0  0
  -11.7038   10.8999   -0.4864 C   0  0  0  0  0  0  0  0  0  0  0  0
  -10.0701    6.1721    5.4613 N   0  0  0  0  0  0  0  0  0  0  0  0
   -9.5200    5.9981    6.7423 C   0  0  2  0  0  0  0  0  0  0  0  0
   -8.2229    5.3739    6.9101 C   0  0  0  0  0  0  0  0  0  0  0  0
   -7.7130    4.6559    6.0384 O   0  0  0  0  0  0  0  0  0  0  0  0
  -10.6001    5.2323    7.5044 C   0  0  0  0  0  0  0  0  0  0  0  0
  -11.8653    5.5973    6.7622 C   0  0  0  0  0  0  0  0  0  0  0  0
  -11.4455    6.6544    5.7671 C   0  0  0  0  0  0  0  0  0  0  0  0
   -7.4279    5.5371    8.1030 N   0  0  0  0  0  0  0  0  0  0  0  0
   -6.4085    4.6397    8.5139 C   0  0  2  0  0  0  0  0  0  0  0  0
   -6.9829    3.3746    9.1082 C   0  0  0  0  0  0  0  0  0  0  0  0
   -8.1636    3.4625    9.8261 O   0  0  0  0  0  1  0  0  0  0  0  0
   -5.3782    5.1836    9.4386 C   0  0  0  0  0  0  0  0  0  0  0  0
   -4.3172    5.8196    8.6078 C   0  0  0  0  0  0  0  0  0  0  0  0
   -4.2639    5.6529    7.2080 O   0  0  0  0  0  1  0  0  0  0  0  0
   -3.4132    6.5380    9.1023 O   0  0  0  0  0  0  0  0  0  0  0  0
   -6.4432    2.2551    8.9830 O   0  0  0  0  0  0  0  0  0  0  0  0
  1  2  2  0
  1  3  1  0
  1  4  1  0
  4  5  1  0
  5  6  1  0
  5  8  1  6
  6  7  2  0
  6 12  1  0
  8  9  1  0
  9 10  1  1
  9 11  1  0
 12 13  1  0
 13 14  1  0
 13 16  1  6
 14 15  2  0
 14 26  1  0
 16 17  1  0
 17 18  2  0
 17 19  1  0
 18 20  1  0
 19 21  2  0
 19 22  1  0
 20 21  1  0
 21 23  1  0
 22 24  2  0
 23 25  2  0
 24 25  1  0
 26 27  1  0
 27 28  1  0
 27 30  1  6
 28 29  2  0
 28 40  1  0
 30 31  1  0
 31 32  2  0
 31 33  1  0
 32 34  1  0
 33 35  2  0
 33 36  1  0
 34 35  1  0
 35 37  1  0
 36 38  2  0
 37 39  2  0
 38 39  1  0
 40 41  1  0
 40 46  1  0
 41 42  1  6
 41 44  1  0
 42 43  2  0
 42 47  1  0
 44 45  1  0
 45 46  1  0
 47 48  1  0
 48 49  1  0
 48 51  1  1
 49 50  1  0
 49 55  2  0
 51 52  1  0
 52 53  1  0
 52 54  2  0
M  CHG  2  50  -1  53  -1
M  END
$$$$
