
     RDKit          3D

 29 33  0  0  0  0  0  0  0  0999 V2000
    7.0235   71.6941   -2.5303 C   0  0  0  0  0  0  0  0  0  0  0  0
    8.3886   71.8557   -2.5202 C   0  0  0  0  0  0  0  0  0  0  0  0
    9.2329   71.0503   -3.2683 C   0  0  0  0  0  0  0  0  0  0  0  0
    8.7165   70.0298   -4.0696 C   0  0  0  0  0  0  0  0  0  0  0  0
    7.3359   69.9002   -4.0493 C   0  0  0  0  0  0  0  0  0  0  0  0
    6.4704   70.6789   -3.3255 C   0  0  0  0  0  0  0  0  0  0  0  0
    9.7592   69.2994   -4.7915 C   0  0  1  0  0  0  0  0  0  0  0  0
    9.3129   68.4354   -5.9161 C   0  0  0  0  0  0  0  0  0  0  0  0
    8.1360   68.9563   -6.7477 C   0  0  0  0  0  0  0  0  0  0  0  0
    6.9044   68.4687   -6.0430 C   0  0  0  0  0  0  0  0  0  0  0  0
    5.4926   68.3130   -4.3253 C   0  0  0  0  0  0  0  0  0  0  0  0
    4.8672   68.4566   -2.9990 C   0  0  0  0  0  0  0  0  0  0  0  0
    8.9186   72.9264   -1.6774 C   0  0  0  0  0  0  0  0  0  0  0  0
   10.2264   73.0341   -1.2550 C   0  0  0  0  0  0  0  0  0  0  0  0
    8.2700   74.0176   -1.1383 C   0  0  0  0  0  0  0  0  0  0  0  0
   11.5182   74.6694    0.1622 C   0  0  0  0  0  0  0  0  0  0  0  0
   11.9651   70.4617   -4.5780 C   0  0  0  0  0  0  0  0  0  0  0  0
   12.3746   69.6574   -3.5385 C   0  0  0  0  0  0  0  0  0  0  0  0
   13.5486   69.9821   -2.8823 C   0  0  0  0  0  0  0  0  0  0  0  0
   14.3344   71.0630   -3.2045 C   0  0  0  0  0  0  0  0  0  0  0  0
   13.9235   71.8719   -4.2477 C   0  0  0  0  0  0  0  0  0  0  0  0
   12.7589   71.5692   -4.9165 C   0  0  0  0  0  0  0  0  0  0  0  0
    6.5806   68.9054   -4.7779 N   0  0  0  0  0  0  0  0  0  0  0  0
    5.9903   67.5975   -6.3661 N   0  0  0  0  0  0  0  0  0  0  0  0
    5.1183   67.4794   -5.3463 N   0  0  0  0  0  0  0  0  0  0  0  0
   10.3281   74.1482   -0.4989 N   0  0  0  0  0  0  0  0  0  0  0  0
    9.1391   74.7560   -0.4214 N   0  0  0  0  0  0  0  0  0  0  0  0
   10.7863   70.1822   -5.3180 N   0  0  0  0  0  0  0  0  0  0  0  0
   15.8259   71.4241   -2.3263 Cl  0  0  0  0  0  0  0  0  0  0  0  0
  2  1  2  0
  6  1  1  0
  3  2  1  0
  2 13  1  0
  4  3  2  0
  4  5  1  0
  7  4  1  0
  5  6  2  0
  5 23  1  0
  7  8  1  0
  7 28  1  6
  8  9  1  0
  9 10  1  0
 10 23  1  0
 10 24  2  0
 11 12  1  0
 23 11  1  0
 11 25  2  0
 13 14  2  0
 13 15  1  0
 14 26  1  0
 15 27  2  0
 26 16  1  0
 17 18  2  0
 17 22  1  0
 17 28  1  0
 18 19  1  0
 19 20  2  0
 20 21  1  0
 20 29  1  0
 21 22  2  0
 24 25  1  0
 26 27  1  0
M  END
$$$$
