
     RDKit          3D

 29 33  0  0  0  0  0  0  0  0999 V2000
    7.2655   72.1463   -2.5441 C   0  0  0  0  0  0  0  0  0  0  0  0
    8.6280   72.3278   -2.5202 C   0  0  0  0  0  0  0  0  0  0  0  0
    9.4909   71.5404   -3.2663 C   0  0  0  0  0  0  0  0  0  0  0  0
    8.9969   70.5184   -4.0797 C   0  0  0  0  0  0  0  0  0  0  0  0
    7.6181   70.3686   -4.0731 C   0  0  0  0  0  0  0  0  0  0  0  0
    6.7348   71.1292   -3.3517 C   0  0  0  0  0  0  0  0  0  0  0  0
   10.0566   69.8087   -4.7972 C   0  0  1  0  0  0  0  0  0  0  0  0
    9.6334   68.9467   -5.9322 C   0  0  0  0  0  0  0  0  0  0  0  0
    8.4566   69.4565   -6.7709 C   0  0  0  0  0  0  0  0  0  0  0  0
    7.2260   68.9458   -6.0811 C   0  0  0  0  0  0  0  0  0  0  0  0
    5.8010   68.7567   -4.3778 C   0  0  0  0  0  0  0  0  0  0  0  0
    5.1614   68.8813   -3.0563 C   0  0  0  0  0  0  0  0  0  0  0  0
    9.1344   73.3999   -1.6647 C   0  0  0  0  0  0  0  0  0  0  0  0
   10.4363   73.5227   -1.2282 C   0  0  0  0  0  0  0  0  0  0  0  0
    8.4653   74.4782   -1.1248 C   0  0  0  0  0  0  0  0  0  0  0  0
   11.6909   75.1658    0.2133 C   0  0  0  0  0  0  0  0  0  0  0  0
   12.2939   70.9140   -4.6082 C   0  0  0  0  0  0  0  0  0  0  0  0
   12.5394   70.3154   -3.3932 C   0  0  0  0  0  0  0  0  0  0  0  0
   13.7616   70.5430   -2.7859 C   0  0  0  0  0  0  0  0  0  0  0  0
   14.7498   71.3338   -3.3222 C   0  0  0  0  0  0  0  0  0  0  0  0
   14.5038   71.9363   -4.5420 C   0  0  0  0  0  0  0  0  0  0  0  0
   13.2953   71.7246   -5.1664 C   0  0  0  0  0  0  0  0  0  0  0  0
    6.8842   69.3683   -4.8160 N   0  0  0  0  0  0  0  0  0  0  0  0
    6.3278   68.0638   -6.4191 N   0  0  0  0  0  0  0  0  0  0  0  0
    5.4483   67.9253   -5.4083 N   0  0  0  0  0  0  0  0  0  0  0  0
   10.5148   74.6328   -0.4635 N   0  0  0  0  0  0  0  0  0  0  0  0
    9.3168   75.2235   -0.3940 N   0  0  0  0  0  0  0  0  0  0  0  0
   11.0755   70.7103   -5.3078 N   0  0  0  0  0  0  0  0  0  0  0  0
   16.2923   71.5849   -2.4953 Cl  0  0  0  0  0  0  0  0  0  0  0  0
  2  1  2  0
  6  1  1  0
  3  2  1  0
  2 13  1  0
  4  3  2  0
  4  5  1  0
  7  4  1  0
  5  6  2  0
  5 23  1  0
  7  8  1  0
  7 28  1  6
  8  9  1  0
  9 10  1  0
 10 23  1  0
 10 24  2  0
 11 12  1  0
 23 11  1  0
 11 25  2  0
 13 14  2  0
 13 15  1  0
 14 26  1  0
 15 27  2  0
 26 16  1  0
 17 18  2  0
 17 22  1  0
 17 28  1  0
 18 19  1  0
 19 20  2  0
 20 21  1  0
 20 29  1  0
 21 22  2  0
 24 25  1  0
 26 27  1  0
M  END
$$$$
