
     RDKit          3D

 29 33  0  0  0  0  0  0  0  0999 V2000
    6.8154   72.3273   -2.5854 C   0  0  0  0  0  0  0  0  0  0  0  0
    8.1785   72.4711   -2.4817 C   0  0  0  0  0  0  0  0  0  0  0  0
    9.0620   71.6106   -3.1144 C   0  0  0  0  0  0  0  0  0  0  0  0
    8.5888   70.5501   -3.8902 C   0  0  0  0  0  0  0  0  0  0  0  0
    7.2084   70.4404   -3.9667 C   0  0  0  0  0  0  0  0  0  0  0  0
    6.3053   71.2731   -3.3582 C   0  0  0  0  0  0  0  0  0  0  0  0
    9.6693   69.7634   -4.4862 C   0  0  1  0  0  0  0  0  0  0  0  0
    9.2930   68.8387   -5.5879 C   0  0  0  0  0  0  0  0  0  0  0  0
    8.1909   69.3236   -6.5358 C   0  0  0  0  0  0  0  0  0  0  0  0
    6.9017   68.8962   -5.8984 C   0  0  0  0  0  0  0  0  0  0  0  0
    5.3629   68.8639   -4.2863 C   0  0  0  0  0  0  0  0  0  0  0  0
    4.6428   69.0963   -3.0220 C   0  0  0  0  0  0  0  0  0  0  0  0
    8.6630   73.5839   -1.6666 C   0  0  0  0  0  0  0  0  0  0  0  0
    7.9642   74.1828   -0.6402 C   0  0  0  0  0  0  0  0  0  0  0  0
    9.8651   74.2568   -1.7308 C   0  0  0  0  0  0  0  0  0  0  0  0
    8.4167   76.0698    0.9679 C   0  0  0  0  0  0  0  0  0  0  0  0
   12.0167   70.6195   -4.3478 C   0  0  0  0  0  0  0  0  0  0  0  0
   12.1645   70.2888   -3.0197 C   0  0  0  0  0  0  0  0  0  0  0  0
   13.4373   70.3084   -2.4775 C   0  0  0  0  0  0  0  0  0  0  0  0
   14.5681   70.6398   -3.1853 C   0  0  0  0  0  0  0  0  0  0  0  0
   14.4207   70.9730   -4.5190 C   0  0  0  0  0  0  0  0  0  0  0  0
   13.1643   70.9604   -5.0815 C   0  0  0  0  0  0  0  0  0  0  0  0
    6.4921   69.4132   -4.6898 N   0  0  0  0  0  0  0  0  0  0  0  0
    5.9989   68.0192   -6.2373 N   0  0  0  0  0  0  0  0  0  0  0  0
    5.0512   67.9748   -5.2812 N   0  0  0  0  0  0  0  0  0  0  0  0
    8.7364   75.1663   -0.1306 N   0  0  0  0  0  0  0  0  0  0  0  0
    9.8992   75.2199   -0.7895 N   0  0  0  0  0  0  0  0  0  0  0  0
   10.7484   70.5989   -4.9853 N   0  0  0  0  0  0  0  0  0  0  0  0
   16.1684   70.6454   -2.4335 Cl  0  0  0  0  0  0  0  0  0  0  0  0
  2  1  2  0
  6  1  1  0
  3  2  1  0
  2 13  1  0
  4  3  2  0
  4  5  1  0
  7  4  1  0
  5  6  2  0
  5 23  1  0
  7  8  1  0
  7 28  1  6
  8  9  1  0
  9 10  1  0
 10 23  1  0
 10 24  2  0
 11 12  1  0
 23 11  1  0
 11 25  2  0
 13 14  2  0
 13 15  1  0
 14 26  1  0
 15 27  2  0
 26 16  1  0
 17 18  2  0
 17 22  1  0
 17 28  1  0
 18 19  1  0
 19 20  2  0
 20 21  1  0
 20 29  1  0
 21 22  2  0
 24 25  1  0
 26 27  1  0
M  END
$$$$
