
     RDKit          3D

 29 33  0  0  0  0  0  0  0  0999 V2000
    6.9954   72.0318   -2.7856 C   0  0  0  0  0  0  0  0  0  0  0  0
    8.3640   72.1392   -2.7151 C   0  0  0  0  0  0  0  0  0  0  0  0
    9.2083   71.2795   -3.4003 C   0  0  0  0  0  0  0  0  0  0  0  0
    8.6880   70.2577   -4.1975 C   0  0  0  0  0  0  0  0  0  0  0  0
    7.3037   70.1839   -4.2391 C   0  0  0  0  0  0  0  0  0  0  0  0
    6.4384   71.0170   -3.5785 C   0  0  0  0  0  0  0  0  0  0  0  0
    9.7319   69.4658   -4.8491 C   0  0  1  0  0  0  0  0  0  0  0  0
    9.3031   68.5883   -5.9700 C   0  0  0  0  0  0  0  0  0  0  0  0
    8.1883   69.1314   -6.8702 C   0  0  0  0  0  0  0  0  0  0  0  0
    6.9065   68.7139   -6.2118 C   0  0  0  0  0  0  0  0  0  0  0  0
    5.4114   68.6641   -4.5595 C   0  0  0  0  0  0  0  0  0  0  0  0
    4.7317   68.8708   -3.2687 C   0  0  0  0  0  0  0  0  0  0  0  0
    8.8980   73.2117   -1.8772 C   0  0  0  0  0  0  0  0  0  0  0  0
    8.2044   73.8640   -0.8803 C   0  0  0  0  0  0  0  0  0  0  0  0
   10.1504   73.7891   -1.8882 C   0  0  0  0  0  0  0  0  0  0  0  0
    8.7326   75.7116    0.7503 C   0  0  0  0  0  0  0  0  0  0  0  0
   12.0003   70.4905   -4.5900 C   0  0  0  0  0  0  0  0  0  0  0  0
   12.3601   69.6343   -3.5739 C   0  0  0  0  0  0  0  0  0  0  0  0
   13.5408   69.8815   -2.8963 C   0  0  0  0  0  0  0  0  0  0  0  0
   14.3801   70.9339   -3.1752 C   0  0  0  0  0  0  0  0  0  0  0  0
   14.0191   71.7949   -4.1949 C   0  0  0  0  0  0  0  0  0  0  0  0
   12.8490   71.5696   -4.8842 C   0  0  0  0  0  0  0  0  0  0  0  0
    6.5427   69.1994   -4.9757 N   0  0  0  0  0  0  0  0  0  0  0  0
    5.9732   67.8708   -6.5544 N   0  0  0  0  0  0  0  0  0  0  0  0
    5.0508   67.8170   -5.5743 N   0  0  0  0  0  0  0  0  0  0  0  0
    9.0280   74.7850   -0.3357 N   0  0  0  0  0  0  0  0  0  0  0  0
   10.2187   74.7475   -0.9440 N   0  0  0  0  0  0  0  0  0  0  0  0
   10.8178   70.2914   -5.3499 N   0  0  0  0  0  0  0  0  0  0  0  0
   15.8771   71.1953   -2.2715 Cl  0  0  0  0  0  0  0  0  0  0  0  0
  2  1  2  0
  6  1  1  0
  3  2  1  0
  2 13  1  0
  4  3  2  0
  4  5  1  0
  7  4  1  0
  5  6  2  0
  5 23  1  0
  7  8  1  0
  7 28  1  6
  8  9  1  0
  9 10  1  0
 10 23  1  0
 10 24  2  0
 11 12  1  0
 23 11  1  0
 11 25  2  0
 13 14  2  0
 13 15  1  0
 14 26  1  0
 15 27  2  0
 26 16  1  0
 17 18  2  0
 17 22  1  0
 17 28  1  0
 18 19  1  0
 19 20  2  0
 20 21  1  0
 20 29  1  0
 21 22  2  0
 24 25  1  0
 26 27  1  0
M  END
$$$$
