
     RDKit          3D

 29 33  0  0  0  0  0  0  0  0999 V2000
    6.6229   71.9009   -2.8497 C   0  0  0  0  0  0  0  0  0  0  0  0
    7.9873   72.0277   -2.7408 C   0  0  0  0  0  0  0  0  0  0  0  0
    8.8627   71.1894   -3.4132 C   0  0  0  0  0  0  0  0  0  0  0  0
    8.3797   70.1700   -4.2365 C   0  0  0  0  0  0  0  0  0  0  0  0
    6.9984   70.0762   -4.3166 C   0  0  0  0  0  0  0  0  0  0  0  0
    6.1030   70.8880   -3.6697 C   0  0  0  0  0  0  0  0  0  0  0  0
    9.4528   69.4020   -4.8690 C   0  0  1  0  0  0  0  0  0  0  0  0
    9.0678   68.5322   -6.0117 C   0  0  0  0  0  0  0  0  0  0  0  0
    7.9696   69.0700   -6.9352 C   0  0  0  0  0  0  0  0  0  0  0  0
    6.6770   68.6252   -6.3170 C   0  0  0  0  0  0  0  0  0  0  0  0
    5.1388   68.5325   -4.7067 C   0  0  0  0  0  0  0  0  0  0  0  0
    4.4214   68.7128   -3.4324 C   0  0  0  0  0  0  0  0  0  0  0  0
    8.4821   73.0976   -1.8758 C   0  0  0  0  0  0  0  0  0  0  0  0
    9.7790   73.5642   -1.8486 C   0  0  0  0  0  0  0  0  0  0  0  0
    7.8047   73.8476   -0.9374 C   0  0  0  0  0  0  0  0  0  0  0  0
   11.0144   75.3362   -0.5503 C   0  0  0  0  0  0  0  0  0  0  0  0
   11.7315   70.3932   -4.5731 C   0  0  0  0  0  0  0  0  0  0  0  0
   11.8382   69.9028   -3.2913 C   0  0  0  0  0  0  0  0  0  0  0  0
   13.0422   70.0597   -2.6280 C   0  0  0  0  0  0  0  0  0  0  0  0
   14.1430   70.6784   -3.1713 C   0  0  0  0  0  0  0  0  0  0  0  0
   14.0366   71.1722   -4.4582 C   0  0  0  0  0  0  0  0  0  0  0  0
   12.8488   71.0277   -5.1391 C   0  0  0  0  0  0  0  0  0  0  0  0
    6.2726   69.0897   -5.0855 N   0  0  0  0  0  0  0  0  0  0  0  0
    5.7662   67.7727   -6.6950 N   0  0  0  0  0  0  0  0  0  0  0  0
    4.8186   67.6929   -5.7411 N   0  0  0  0  0  0  0  0  0  0  0  0
    9.8468   74.5487   -0.9269 N   0  0  0  0  0  0  0  0  0  0  0  0
    8.6467   74.7296   -0.3648 N   0  0  0  0  0  0  0  0  0  0  0  0
   10.5391   70.2499   -5.3301 N   0  0  0  0  0  0  0  0  0  0  0  0
   15.6551   70.8470   -2.2706 Cl  0  0  0  0  0  0  0  0  0  0  0  0
  2  1  2  0
  6  1  1  0
  3  2  1  0
  2 13  1  0
  4  3  2  0
  4  5  1  0
  7  4  1  0
  5  6  2  0
  5 23  1  0
  7  8  1  0
  7 28  1  6
  8  9  1  0
  9 10  1  0
 10 23  1  0
 10 24  2  0
 11 12  1  0
 23 11  1  0
 11 25  2  0
 13 14  2  0
 13 15  1  0
 14 26  1  0
 15 27  2  0
 26 16  1  0
 17 18  2  0
 17 22  1  0
 17 28  1  0
 18 19  1  0
 19 20  2  0
 20 21  1  0
 20 29  1  0
 21 22  2  0
 24 25  1  0
 26 27  1  0
M  END
$$$$
