
     RDKit          3D

 29 33  0  0  0  0  0  0  0  0999 V2000
    6.9088   72.2072   -2.4898 C   0  0  0  0  0  0  0  0  0  0  0  0
    8.2740   72.3652   -2.4574 C   0  0  0  0  0  0  0  0  0  0  0  0
    9.1281   71.5588   -3.1932 C   0  0  0  0  0  0  0  0  0  0  0  0
    8.6221   70.5409   -4.0044 C   0  0  0  0  0  0  0  0  0  0  0  0
    7.2409   70.4151   -4.0066 C   0  0  0  0  0  0  0  0  0  0  0  0
    6.3660   71.1949   -3.2956 C   0  0  0  0  0  0  0  0  0  0  0  0
    9.6742   69.8090   -4.7106 C   0  0  1  0  0  0  0  0  0  0  0  0
    9.2439   68.9481   -5.8438 C   0  0  0  0  0  0  0  0  0  0  0  0
    8.0819   69.4735   -6.6934 C   0  0  0  0  0  0  0  0  0  0  0  0
    6.8379   68.9880   -6.0095 C   0  0  0  0  0  0  0  0  0  0  0  0
    5.3982   68.8332   -4.3151 C   0  0  0  0  0  0  0  0  0  0  0  0
    4.7518   68.9763   -2.9987 C   0  0  0  0  0  0  0  0  0  0  0  0
    8.7931   73.4331   -1.6044 C   0  0  0  0  0  0  0  0  0  0  0  0
    8.0718   74.1035   -0.6397 C   0  0  0  0  0  0  0  0  0  0  0  0
   10.0551   73.9880   -1.5678 C   0  0  0  0  0  0  0  0  0  0  0  0
    8.5673   75.9512    1.0011 C   0  0  0  0  0  0  0  0  0  0  0  0
   11.9678   70.7996   -4.5659 C   0  0  0  0  0  0  0  0  0  0  0  0
   12.9465   71.6551   -5.0188 C   0  0  0  0  0  0  0  0  0  0  0  0
   14.1344   71.7238   -4.3127 C   0  0  0  0  0  0  0  0  0  0  0  0
   14.3995   70.9871   -3.1828 C   0  0  0  0  0  0  0  0  0  0  0  0
   13.4175   70.1269   -2.7278 C   0  0  0  0  0  0  0  0  0  0  0  0
   12.2266   70.0412   -3.4130 C   0  0  0  0  0  0  0  0  0  0  0  0
    6.4949   69.4235   -4.7490 N   0  0  0  0  0  0  0  0  0  0  0  0
    5.9269   68.1198   -6.3488 N   0  0  0  0  0  0  0  0  0  0  0  0
    5.0382   68.0023   -5.3434 N   0  0  0  0  0  0  0  0  0  0  0  0
    8.8893   75.0130   -0.0672 N   0  0  0  0  0  0  0  0  0  0  0  0
   10.1026   74.9506   -0.6267 N   0  0  0  0  0  0  0  0  0  0  0  0
   10.7121   70.6899   -5.2190 N   0  0  0  0  0  0  0  0  0  0  0  0
   15.9395   71.1210   -2.3245 Cl  0  0  0  0  0  0  0  0  0  0  0  0
  2  1  2  0
  6  1  1  0
  3  2  1  0
  2 13  1  0
  4  3  2  0
  4  5  1  0
  7  4  1  0
  5  6  2  0
  5 23  1  0
  7  8  1  0
  7 28  1  6
  8  9  1  0
  9 10  1  0
 10 23  1  0
 10 24  2  0
 11 12  1  0
 23 11  1  0
 11 25  2  0
 13 14  2  0
 13 15  1  0
 14 26  1  0
 15 27  2  0
 26 16  1  0
 17 18  2  0
 17 22  1  0
 17 28  1  0
 18 19  1  0
 19 20  2  0
 20 21  1  0
 20 29  1  0
 21 22  2  0
 24 25  1  0
 26 27  1  0
M  END
$$$$
