
     RDKit          3D

 29 33  0  0  0  0  0  0  0  0999 V2000
    6.8412   72.1599   -2.6952 C   0  0  0  0  0  0  0  0  0  0  0  0
    8.1979   72.3572   -2.5934 C   0  0  0  0  0  0  0  0  0  0  0  0
    9.1117   71.5697   -3.2762 C   0  0  0  0  0  0  0  0  0  0  0  0
    8.6775   70.5314   -4.1031 C   0  0  0  0  0  0  0  0  0  0  0  0
    7.3024   70.3661   -4.1758 C   0  0  0  0  0  0  0  0  0  0  0  0
    6.3699   71.1261   -3.5185 C   0  0  0  0  0  0  0  0  0  0  0  0
    9.7853   69.8243   -4.7467 C   0  0  1  0  0  0  0  0  0  0  0  0
    9.4391   68.9426   -5.8926 C   0  0  0  0  0  0  0  0  0  0  0  0
    8.3087   69.4278   -6.8063 C   0  0  0  0  0  0  0  0  0  0  0  0
    7.0449   68.9123   -6.1834 C   0  0  0  0  0  0  0  0  0  0  0  0
    5.5236   68.7298   -4.5647 C   0  0  0  0  0  0  0  0  0  0  0  0
    4.8056   68.8648   -3.2851 C   0  0  0  0  0  0  0  0  0  0  0  0
    8.6415   73.4462   -1.7246 C   0  0  0  0  0  0  0  0  0  0  0  0
    7.8350   74.1528   -0.8582 C   0  0  0  0  0  0  0  0  0  0  0  0
    9.9001   73.9903   -1.5773 C   0  0  0  0  0  0  0  0  0  0  0  0
    8.1852   76.0458    0.7683 C   0  0  0  0  0  0  0  0  0  0  0  0
   12.0728   70.8181   -4.5412 C   0  0  0  0  0  0  0  0  0  0  0  0
   13.1843   70.1448   -4.9952 C   0  0  0  0  0  0  0  0  0  0  0  0
   14.3727   70.3014   -4.3040 C   0  0  0  0  0  0  0  0  0  0  0  0
   14.5128   71.0900   -3.1869 C   0  0  0  0  0  0  0  0  0  0  0  0
   13.3968   71.7659   -2.7295 C   0  0  0  0  0  0  0  0  0  0  0  0
   12.2029   71.6266   -3.4006 C   0  0  0  0  0  0  0  0  0  0  0  0
    6.6244   69.3478   -4.9466 N   0  0  0  0  0  0  0  0  0  0  0  0
    6.1775   68.0158   -6.5614 N   0  0  0  0  0  0  0  0  0  0  0  0
    5.2413   67.8808   -5.6025 N   0  0  0  0  0  0  0  0  0  0  0  0
    8.6018   75.0720   -0.2334 N   0  0  0  0  0  0  0  0  0  0  0  0
    9.8644   74.9812   -0.6654 N   0  0  0  0  0  0  0  0  0  0  0  0
   10.8230   70.7306   -5.2088 N   0  0  0  0  0  0  0  0  0  0  0  0
   16.0610   71.2488   -2.3479 Cl  0  0  0  0  0  0  0  0  0  0  0  0
  2  1  2  0
  6  1  1  0
  3  2  1  0
  2 13  1  0
  4  3  2  0
  4  5  1  0
  7  4  1  0
  5  6  2  0
  5 23  1  0
  7  8  1  0
  7 28  1  6
  8  9  1  0
  9 10  1  0
 10 23  1  0
 10 24  2  0
 11 12  1  0
 23 11  1  0
 11 25  2  0
 13 14  2  0
 13 15  1  0
 14 26  1  0
 15 27  2  0
 26 16  1  0
 17 18  2  0
 17 22  1  0
 17 28  1  0
 18 19  1  0
 19 20  2  0
 20 21  1  0
 20 29  1  0
 21 22  2  0
 24 25  1  0
 26 27  1  0
M  END
$$$$
