
     RDKit          3D

 29 33  0  0  0  0  0  0  0  0999 V2000
    7.2856   71.8292   -2.3977 C   0  0  0  0  0  0  0  0  0  0  0  0
    8.6498   71.9870   -2.3360 C   0  0  0  0  0  0  0  0  0  0  0  0
    9.5198   71.1745   -3.0460 C   0  0  0  0  0  0  0  0  0  0  0  0
    9.0315   70.1504   -3.8604 C   0  0  0  0  0  0  0  0  0  0  0  0
    7.6507   70.0250   -3.8924 C   0  0  0  0  0  0  0  0  0  0  0  0
    6.7604   70.8107   -3.2074 C   0  0  0  0  0  0  0  0  0  0  0  0
   10.0988   69.4125   -4.5370 C   0  0  1  0  0  0  0  0  0  0  0  0
    9.6936   68.5429   -5.6727 C   0  0  0  0  0  0  0  0  0  0  0  0
    8.5511   69.0619   -6.5522 C   0  0  0  0  0  0  0  0  0  0  0  0
    7.2919   68.5823   -5.8925 C   0  0  0  0  0  0  0  0  0  0  0  0
    5.8145   68.4414   -4.2296 C   0  0  0  0  0  0  0  0  0  0  0  0
    5.1389   68.5952   -2.9292 C   0  0  0  0  0  0  0  0  0  0  0  0
    9.1503   73.0614   -1.4800 C   0  0  0  0  0  0  0  0  0  0  0  0
    8.3680   73.9939   -0.8326 C   0  0  0  0  0  0  0  0  0  0  0  0
   10.4492   73.3753   -1.1394 C   0  0  0  0  0  0  0  0  0  0  0  0
    8.8122   75.9520    0.6905 C   0  0  0  0  0  0  0  0  0  0  0  0
   12.3896   70.4024   -4.3496 C   0  0  0  0  0  0  0  0  0  0  0  0
   12.5192   70.0729   -3.0193 C   0  0  0  0  0  0  0  0  0  0  0  0
   13.7682   70.1863   -2.4351 C   0  0  0  0  0  0  0  0  0  0  0  0
   14.8925   70.6101   -3.1029 C   0  0  0  0  0  0  0  0  0  0  0  0
   14.7632   70.9422   -4.4388 C   0  0  0  0  0  0  0  0  0  0  0  0
   13.5306   70.8372   -5.0428 C   0  0  0  0  0  0  0  0  0  0  0  0
    6.9209   69.0278   -4.6435 N   0  0  0  0  0  0  0  0  0  0  0  0
    6.3882   67.7118   -6.2452 N   0  0  0  0  0  0  0  0  0  0  0  0
    5.4772   67.6025   -5.2591 N   0  0  0  0  0  0  0  0  0  0  0  0
    9.1873   74.8164   -0.1432 N   0  0  0  0  0  0  0  0  0  0  0  0
   10.4602   74.4474   -0.3238 N   0  0  0  0  0  0  0  0  0  0  0  0
   11.1482   70.2891   -5.0289 N   0  0  0  0  0  0  0  0  0  0  0  0
   16.4621   70.7332   -2.2984 Cl  0  0  0  0  0  0  0  0  0  0  0  0
  2  1  2  0
  6  1  1  0
  3  2  1  0
  2 13  1  0
  4  3  2  0
  4  5  1  0
  7  4  1  0
  5  6  2  0
  5 23  1  0
  7  8  1  0
  7 28  1  6
  8  9  1  0
  9 10  1  0
 10 23  1  0
 10 24  2  0
 11 12  1  0
 23 11  1  0
 11 25  2  0
 13 14  2  0
 13 15  1  0
 14 26  1  0
 15 27  2  0
 26 16  1  0
 17 18  2  0
 17 22  1  0
 17 28  1  0
 18 19  1  0
 19 20  2  0
 20 21  1  0
 20 29  1  0
 21 22  2  0
 24 25  1  0
 26 27  1  0
M  END
$$$$
