
     RDKit          3D

 29 33  0  0  0  0  0  0  0  0999 V2000
    7.2027   71.9878   -2.6089 C   0  0  0  0  0  0  0  0  0  0  0  0
    8.5699   72.1280   -2.5853 C   0  0  0  0  0  0  0  0  0  0  0  0
    9.4072   71.3309   -3.3501 C   0  0  0  0  0  0  0  0  0  0  0  0
    8.8809   70.3411   -4.1830 C   0  0  0  0  0  0  0  0  0  0  0  0
    7.4984   70.2325   -4.1754 C   0  0  0  0  0  0  0  0  0  0  0  0
    6.6398   71.0039   -3.4359 C   0  0  0  0  0  0  0  0  0  0  0  0
    9.9173   69.6152   -4.9181 C   0  0  1  0  0  0  0  0  0  0  0  0
    9.4659   68.7899   -6.0695 C   0  0  0  0  0  0  0  0  0  0  0  0
    8.3029   69.3519   -6.8939 C   0  0  0  0  0  0  0  0  0  0  0  0
    7.0592   68.8640   -6.2113 C   0  0  0  0  0  0  0  0  0  0  0  0
    5.6331   68.6822   -4.5080 C   0  0  0  0  0  0  0  0  0  0  0  0
    5.0006   68.7984   -3.1823 C   0  0  0  0  0  0  0  0  0  0  0  0
    9.1103   73.1665   -1.7094 C   0  0  0  0  0  0  0  0  0  0  0  0
    8.3676   74.1398   -1.0757 C   0  0  0  0  0  0  0  0  0  0  0  0
   10.4162   73.4016   -1.3336 C   0  0  0  0  0  0  0  0  0  0  0  0
    8.8863   76.0601    0.4718 C   0  0  0  0  0  0  0  0  0  0  0  0
   12.1749   70.6722   -4.6973 C   0  0  0  0  0  0  0  0  0  0  0  0
   12.3883   70.0728   -3.4766 C   0  0  0  0  0  0  0  0  0  0  0  0
   13.6074   70.2721   -2.8533 C   0  0  0  0  0  0  0  0  0  0  0  0
   14.6226   71.0353   -3.3789 C   0  0  0  0  0  0  0  0  0  0  0  0
   14.4089   71.6385   -4.6045 C   0  0  0  0  0  0  0  0  0  0  0  0
   13.2041   71.4548   -5.2447 C   0  0  0  0  0  0  0  0  0  0  0  0
    6.7331   69.2701   -4.9366 N   0  0  0  0  0  0  0  0  0  0  0  0
    6.1342   68.0163   -6.5647 N   0  0  0  0  0  0  0  0  0  0  0  0
    5.2533   67.8833   -5.5544 N   0  0  0  0  0  0  0  0  0  0  0  0
    9.2156   74.9090   -0.3599 N   0  0  0  0  0  0  0  0  0  0  0  0
   10.4689   74.4667   -0.5105 N   0  0  0  0  0  0  0  0  0  0  0  0
   10.9615   70.4964   -5.4129 N   0  0  0  0  0  0  0  0  0  0  0  0
   16.1595   71.2509   -2.5317 Cl  0  0  0  0  0  0  0  0  0  0  0  0
  2  1  2  0
  6  1  1  0
  3  2  1  0
  2 13  1  0
  4  3  2  0
  4  5  1  0
  7  4  1  0
  5  6  2  0
  5 23  1  0
  7  8  1  0
  7 28  1  6
  8  9  1  0
  9 10  1  0
 10 23  1  0
 10 24  2  0
 11 12  1  0
 23 11  1  0
 11 25  2  0
 13 14  2  0
 13 15  1  0
 14 26  1  0
 15 27  2  0
 26 16  1  0
 17 18  2  0
 17 22  1  0
 17 28  1  0
 18 19  1  0
 19 20  2  0
 20 21  1  0
 20 29  1  0
 21 22  2  0
 24 25  1  0
 26 27  1  0
M  END
$$$$
