
     RDKit          3D

 29 33  0  0  0  0  0  0  0  0999 V2000
    7.0330   72.1583   -2.8485 C   0  0  0  0  0  0  0  0  0  0  0  0
    8.4008   72.2855   -2.7977 C   0  0  0  0  0  0  0  0  0  0  0  0
    9.2479   71.4286   -3.4828 C   0  0  0  0  0  0  0  0  0  0  0  0
    8.7315   70.3890   -4.2594 C   0  0  0  0  0  0  0  0  0  0  0  0
    7.3480   70.2956   -4.2816 C   0  0  0  0  0  0  0  0  0  0  0  0
    6.4799   71.1254   -3.6204 C   0  0  0  0  0  0  0  0  0  0  0  0
    9.7778   69.6031   -4.9144 C   0  0  1  0  0  0  0  0  0  0  0  0
    9.3465   68.7048   -6.0178 C   0  0  0  0  0  0  0  0  0  0  0  0
    8.2125   69.2204   -6.9101 C   0  0  0  0  0  0  0  0  0  0  0  0
    6.9454   68.7939   -6.2292 C   0  0  0  0  0  0  0  0  0  0  0  0
    5.4731   68.7456   -4.5566 C   0  0  0  0  0  0  0  0  0  0  0  0
    4.8076   68.9600   -3.2596 C   0  0  0  0  0  0  0  0  0  0  0  0
    8.9307   73.3765   -1.9813 C   0  0  0  0  0  0  0  0  0  0  0  0
    8.1908   74.1597   -1.1213 C   0  0  0  0  0  0  0  0  0  0  0  0
   10.2224   73.8502   -1.8863 C   0  0  0  0  0  0  0  0  0  0  0  0
    8.6952   76.0851    0.4247 C   0  0  0  0  0  0  0  0  0  0  0  0
   12.0293   70.6728   -4.6937 C   0  0  0  0  0  0  0  0  0  0  0  0
   12.1728   70.2186   -3.4022 C   0  0  0  0  0  0  0  0  0  0  0  0
   13.3672   70.4668   -2.7495 C   0  0  0  0  0  0  0  0  0  0  0  0
   14.4237   71.1424   -3.3124 C   0  0  0  0  0  0  0  0  0  0  0  0
   14.2802   71.5999   -4.6092 C   0  0  0  0  0  0  0  0  0  0  0  0
   13.1012   71.3648   -5.2799 C   0  0  0  0  0  0  0  0  0  0  0  0
    6.5912   69.2909   -4.9949 N   0  0  0  0  0  0  0  0  0  0  0  0
    6.0196   67.9336   -6.5481 N   0  0  0  0  0  0  0  0  0  0  0  0
    5.1111   67.8801   -5.5552 N   0  0  0  0  0  0  0  0  0  0  0  0
    9.0266   75.0536   -0.5507 N   0  0  0  0  0  0  0  0  0  0  0  0
   10.2694   74.8731   -1.0110 N   0  0  0  0  0  0  0  0  0  0  0  0
   10.8453   70.4369   -5.4405 N   0  0  0  0  0  0  0  0  0  0  0  0
   15.9258   71.4272   -2.4244 Cl  0  0  0  0  0  0  0  0  0  0  0  0
  2  1  2  0
  6  1  1  0
  3  2  1  0
  2 13  1  0
  4  3  2  0
  4  5  1  0
  7  4  1  0
  5  6  2  0
  5 23  1  0
  7  8  1  0
  7 28  1  6
  8  9  1  0
  9 10  1  0
 10 23  1  0
 10 24  2  0
 11 12  1  0
 23 11  1  0
 11 25  2  0
 13 14  2  0
 13 15  1  0
 14 26  1  0
 15 27  2  0
 26 16  1  0
 17 18  2  0
 17 22  1  0
 17 28  1  0
 18 19  1  0
 19 20  2  0
 20 21  1  0
 20 29  1  0
 21 22  2  0
 24 25  1  0
 26 27  1  0
M  END
$$$$
