
     RDKit          3D

 29 33  0  0  0  0  0  0  0  0999 V2000
    6.7482   71.7105   -2.3446 C   0  0  0  0  0  0  0  0  0  0  0  0
    8.0172   72.2324   -2.4281 C   0  0  0  0  0  0  0  0  0  0  0  0
    8.9932   71.6741   -3.2387 C   0  0  0  0  0  0  0  0  0  0  0  0
    8.7158   70.5431   -4.0094 C   0  0  0  0  0  0  0  0  0  0  0  0
    7.4254   70.0483   -3.8942 C   0  0  0  0  0  0  0  0  0  0  0  0
    6.4346   70.5749   -3.1067 C   0  0  0  0  0  0  0  0  0  0  0  0
    9.8640   70.1105   -4.8070 C   0  0  1  0  0  0  0  0  0  0  0  0
    9.5898   69.1453   -5.9040 C   0  0  0  0  0  0  0  0  0  0  0  0
    8.2619   69.3216   -6.6483 C   0  0  0  0  0  0  0  0  0  0  0  0
    7.2579   68.5301   -5.8633 C   0  0  0  0  0  0  0  0  0  0  0  0
    6.0612   68.0217   -4.0530 C   0  0  0  0  0  0  0  0  0  0  0  0
    5.5128   68.0081   -2.6854 C   0  0  0  0  0  0  0  0  0  0  0  0
    8.2971   73.4159   -1.6165 C   0  0  0  0  0  0  0  0  0  0  0  0
    7.4420   73.9620   -0.6833 C   0  0  0  0  0  0  0  0  0  0  0  0
    9.4192   74.2174   -1.5965 C   0  0  0  0  0  0  0  0  0  0  0  0
    7.5298   75.9340    0.8837 C   0  0  0  0  0  0  0  0  0  0  0  0
   11.9652   71.1467   -5.6869 C   0  0  0  0  0  0  0  0  0  0  0  0
   12.8061   70.3267   -4.9690 C   0  0  0  0  0  0  0  0  0  0  0  0
   14.1413   70.2815   -5.3288 C   0  0  0  0  0  0  0  0  0  0  0  0
   14.6829   71.0082   -6.3624 C   0  0  0  0  0  0  0  0  0  0  0  0
   13.8393   71.8328   -7.0834 C   0  0  0  0  0  0  0  0  0  0  0  0
   12.5063   71.8946   -6.7448 C   0  0  0  0  0  0  0  0  0  0  0  0
    6.9165   68.8788   -4.5757 N   0  0  0  0  0  0  0  0  0  0  0  0
    6.5911   67.4419   -6.1284 N   0  0  0  0  0  0  0  0  0  0  0  0
    5.8550   67.1063   -5.0514 N   0  0  0  0  0  0  0  0  0  0  0  0
    8.0498   75.0405   -0.1442 N   0  0  0  0  0  0  0  0  0  0  0  0
    9.2576   75.2052   -0.6949 N   0  0  0  0  0  0  0  0  0  0  0  0
   10.5779   71.2302   -5.3972 N   0  0  0  0  0  0  0  0  0  0  0  0
   16.3996   70.9056   -6.7729 Cl  0  0  0  0  0  0  0  0  0  0  0  0
  2  1  2  0
  6  1  1  0
  3  2  1  0
  2 13  1  0
  4  3  2  0
  4  5  1  0
  7  4  1  0
  5  6  2  0
  5 23  1  0
  7  8  1  0
  7 28  1  6
  8  9  1  0
  9 10  1  0
 10 23  1  0
 10 24  2  0
 11 12  1  0
 23 11  1  0
 11 25  2  0
 13 14  2  0
 13 15  1  0
 14 26  1  0
 15 27  2  0
 26 16  1  0
 17 18  2  0
 17 22  1  0
 17 28  1  0
 18 19  1  0
 19 20  2  0
 20 21  1  0
 20 29  1  0
 21 22  2  0
 24 25  1  0
 26 27  1  0
M  END
$$$$
