
     RDKit          3D

 29 33  0  0  0  0  0  0  0  0999 V2000
    8.6733   71.3503   -7.4949 C   0  0  0  0  0  0  0  0  0  0  0  0
    9.8169   71.5120   -6.7495 C   0  0  0  0  0  0  0  0  0  0  0  0
    9.9556   70.9672   -5.4825 C   0  0  0  0  0  0  0  0  0  0  0  0
    8.9202   70.2246   -4.9108 C   0  0  0  0  0  0  0  0  0  0  0  0
    7.7848   70.0875   -5.6953 C   0  0  0  0  0  0  0  0  0  0  0  0
    7.6134   70.6086   -6.9516 C   0  0  0  0  0  0  0  0  0  0  0  0
    9.2577   69.7222   -3.5784 C   0  0  1  0  0  0  0  0  0  0  0  0
    8.3850   68.6522   -3.0271 C   0  0  0  0  0  0  0  0  0  0  0  0
    7.8465   67.6289   -4.0326 C   0  0  0  0  0  0  0  0  0  0  0  0
    6.5763   68.2245   -4.5645 C   0  0  0  0  0  0  0  0  0  0  0  0
    5.3596   69.7602   -5.6271 C   0  0  0  0  0  0  0  0  0  0  0  0
    4.9450   70.9750   -6.3507 C   0  0  0  0  0  0  0  0  0  0  0  0
   10.8941   72.2917   -7.3571 C   0  0  0  0  0  0  0  0  0  0  0  0
   10.9251   72.7220   -8.6665 C   0  0  0  0  0  0  0  0  0  0  0  0
   12.0654   72.7530   -6.7937 C   0  0  0  0  0  0  0  0  0  0  0  0
   12.5407   74.0481  -10.0746 C   0  0  0  0  0  0  0  0  0  0  0  0
   11.6917   70.0912   -3.1288 C   0  0  0  0  0  0  0  0  0  0  0  0
   13.0077   69.7298   -3.3092 C   0  0  0  0  0  0  0  0  0  0  0  0
   13.9909   70.6313   -2.9417 C   0  0  0  0  0  0  0  0  0  0  0  0
   13.7342   71.8703   -2.4046 C   0  0  0  0  0  0  0  0  0  0  0  0
   12.4129   72.2339   -2.2221 C   0  0  0  0  0  0  0  0  0  0  0  0
   11.4165   71.3542   -2.5806 C   0  0  0  0  0  0  0  0  0  0  0  0
    6.5826   69.3841   -5.3069 N   0  0  0  0  0  0  0  0  0  0  0  0
    5.3235   67.8877   -4.4368 N   0  0  0  0  0  0  0  0  0  0  0  0
    4.5589   68.7981   -5.0698 N   0  0  0  0  0  0  0  0  0  0  0  0
   12.0739   73.4072   -8.8513 N   0  0  0  0  0  0  0  0  0  0  0  0
   12.7773   73.4319   -7.7140 N   0  0  0  0  0  0  0  0  0  0  0  0
   10.6243   69.2337   -3.5038 N   0  0  0  0  0  0  0  0  0  0  0  0
   15.0371   72.9780   -1.9554 Cl  0  0  0  0  0  0  0  0  0  0  0  0
  2  1  2  0
  6  1  1  0
  3  2  1  0
  2 13  1  0
  4  3  2  0
  4  5  1  0
  7  4  1  0
  5  6  2  0
  5 23  1  0
  7  8  1  0
  7 28  1  6
  8  9  1  0
  9 10  1  0
 10 23  1  0
 10 24  2  0
 11 12  1  0
 23 11  1  0
 11 25  2  0
 13 14  2  0
 13 15  1  0
 14 26  1  0
 15 27  2  0
 26 16  1  0
 17 18  2  0
 17 22  1  0
 17 28  1  0
 18 19  1  0
 19 20  2  0
 20 21  1  0
 20 29  1  0
 21 22  2  0
 24 25  1  0
 26 27  1  0
M  END
$$$$
