
     RDKit          3D

 29 33  0  0  0  0  0  0  0  0999 V2000
    6.6249   71.8043   -2.6019 C   0  0  0  0  0  0  0  0  0  0  0  0
    7.9679   72.0754   -2.4898 C   0  0  0  0  0  0  0  0  0  0  0  0
    8.9293   71.3323   -3.1567 C   0  0  0  0  0  0  0  0  0  0  0  0
    8.5596   70.2647   -3.9776 C   0  0  0  0  0  0  0  0  0  0  0  0
    7.1963   70.0247   -4.0611 C   0  0  0  0  0  0  0  0  0  0  0  0
    6.2179   70.7392   -3.4196 C   0  0  0  0  0  0  0  0  0  0  0  0
    9.7100   69.6126   -4.6044 C   0  0  1  0  0  0  0  0  0  0  0  0
    9.4229   68.7032   -5.7449 C   0  0  0  0  0  0  0  0  0  0  0  0
    8.2767   69.1184   -6.6734 C   0  0  0  0  0  0  0  0  0  0  0  0
    7.0366   68.5411   -6.0571 C   0  0  0  0  0  0  0  0  0  0  0  0
    5.5120   68.2912   -4.4506 C   0  0  0  0  0  0  0  0  0  0  0  0
    4.7756   68.3988   -3.1789 C   0  0  0  0  0  0  0  0  0  0  0  0
    8.3439   73.1945   -1.6274 C   0  0  0  0  0  0  0  0  0  0  0  0
    9.5993   73.4057   -1.0985 C   0  0  0  0  0  0  0  0  0  0  0  0
    7.5733   74.2416   -1.1672 C   0  0  0  0  0  0  0  0  0  0  0  0
   10.6418   75.1530    0.3888 C   0  0  0  0  0  0  0  0  0  0  0  0
   11.9745   70.6659   -4.4441 C   0  0  0  0  0  0  0  0  0  0  0  0
   12.1186   71.1420   -3.1606 C   0  0  0  0  0  0  0  0  0  0  0  0
   13.3897   71.1815   -2.6155 C   0  0  0  0  0  0  0  0  0  0  0  0
   14.5225   70.7741   -3.2791 C   0  0  0  0  0  0  0  0  0  0  0  0
   14.3789   70.2967   -4.5686 C   0  0  0  0  0  0  0  0  0  0  0  0
   13.1241   70.2471   -5.1327 C   0  0  0  0  0  0  0  0  0  0  0  0
    6.5815   68.9643   -4.8284 N   0  0  0  0  0  0  0  0  0  0  0  0
    6.2225   67.5956   -6.4344 N   0  0  0  0  0  0  0  0  0  0  0  0
    5.2858   67.4190   -5.4827 N   0  0  0  0  0  0  0  0  0  0  0  0
    9.5540   74.5349   -0.3595 N   0  0  0  0  0  0  0  0  0  0  0  0
    8.3214   75.0530   -0.3949 N   0  0  0  0  0  0  0  0  0  0  0  0
   10.7018   70.5694   -5.0657 N   0  0  0  0  0  0  0  0  0  0  0  0
   16.1203   70.8495   -2.5258 Cl  0  0  0  0  0  0  0  0  0  0  0  0
  2  1  2  0
  6  1  1  0
  3  2  1  0
  2 13  1  0
  4  3  2  0
  4  5  1  0
  7  4  1  0
  5  6  2  0
  5 23  1  0
  7  8  1  0
  7 28  1  6
  8  9  1  0
  9 10  1  0
 10 23  1  0
 10 24  2  0
 11 12  1  0
 23 11  1  0
 11 25  2  0
 13 14  2  0
 13 15  1  0
 14 26  1  0
 15 27  2  0
 26 16  1  0
 17 18  2  0
 17 22  1  0
 17 28  1  0
 18 19  1  0
 19 20  2  0
 20 21  1  0
 20 29  1  0
 21 22  2  0
 24 25  1  0
 26 27  1  0
M  END
$$$$
