
     RDKit          3D

 29 33  0  0  0  0  0  0  0  0999 V2000
    6.8149   72.2602   -2.7525 C   0  0  0  0  0  0  0  0  0  0  0  0
    8.1814   72.4044   -2.7138 C   0  0  0  0  0  0  0  0  0  0  0  0
    9.0310   71.5874   -3.4432 C   0  0  0  0  0  0  0  0  0  0  0  0
    8.5185   70.5726   -4.2543 C   0  0  0  0  0  0  0  0  0  0  0  0
    7.1362   70.4608   -4.2629 C   0  0  0  0  0  0  0  0  0  0  0  0
    6.2658   71.2513   -3.5582 C   0  0  0  0  0  0  0  0  0  0  0  0
    9.5666   69.8281   -4.9534 C   0  0  1  0  0  0  0  0  0  0  0  0
    9.1331   68.9686   -6.0864 C   0  0  0  0  0  0  0  0  0  0  0  0
    7.9807   69.5035   -6.9431 C   0  0  0  0  0  0  0  0  0  0  0  0
    6.7285   69.0325   -6.2640 C   0  0  0  0  0  0  0  0  0  0  0  0
    5.2790   68.8969   -4.5763 C   0  0  0  0  0  0  0  0  0  0  0  0
    4.6277   69.0501   -3.2635 C   0  0  0  0  0  0  0  0  0  0  0  0
    8.7073   73.4692   -1.8610 C   0  0  0  0  0  0  0  0  0  0  0  0
    7.9444   74.3896   -1.1743 C   0  0  0  0  0  0  0  0  0  0  0  0
   10.0161   73.7840   -1.5613 C   0  0  0  0  0  0  0  0  0  0  0  0
    8.4339   76.3288    0.3592 C   0  0  0  0  0  0  0  0  0  0  0  0
   11.8345   70.8666   -4.7508 C   0  0  0  0  0  0  0  0  0  0  0  0
   12.7009   71.8970   -5.0381 C   0  0  0  0  0  0  0  0  0  0  0  0
   13.8567   72.0098   -4.2859 C   0  0  0  0  0  0  0  0  0  0  0  0
   14.1955   71.1529   -3.2659 C   0  0  0  0  0  0  0  0  0  0  0  0
   13.3264   70.1172   -2.9772 C   0  0  0  0  0  0  0  0  0  0  0  0
   12.1695   69.9842   -3.7113 C   0  0  0  0  0  0  0  0  0  0  0  0
    6.3837   69.4748   -5.0064 N   0  0  0  0  0  0  0  0  0  0  0  0
    5.8103   68.1727   -6.6054 N   0  0  0  0  0  0  0  0  0  0  0  0
    4.9156   68.0670   -5.6041 N   0  0  0  0  0  0  0  0  0  0  0  0
    8.7841   75.2062   -0.5024 N   0  0  0  0  0  0  0  0  0  0  0  0
   10.0513   74.8450   -0.7320 N   0  0  0  0  0  0  0  0  0  0  0  0
   10.6158   70.6971   -5.4590 N   0  0  0  0  0  0  0  0  0  0  0  0
   15.6891   71.3516   -2.3407 Cl  0  0  0  0  0  0  0  0  0  0  0  0
  2  1  2  0
  6  1  1  0
  3  2  1  0
  2 13  1  0
  4  3  2  0
  4  5  1  0
  7  4  1  0
  5  6  2  0
  5 23  1  0
  7  8  1  0
  7 28  1  6
  8  9  1  0
  9 10  1  0
 10 23  1  0
 10 24  2  0
 11 12  1  0
 23 11  1  0
 11 25  2  0
 13 14  2  0
 13 15  1  0
 14 26  1  0
 15 27  2  0
 26 16  1  0
 17 18  2  0
 17 22  1  0
 17 28  1  0
 18 19  1  0
 19 20  2  0
 20 21  1  0
 20 29  1  0
 21 22  2  0
 24 25  1  0
 26 27  1  0
M  END
$$$$
