
     RDKit          3D

 64 65  0  0  0  0  0  0  0  0999 V2000
   55.2293  -33.1373   -5.9407 N   0  0  0  0  0  0  0  0  0  0  0  0
   53.9506  -33.7729   -5.9490 C   0  0  2  0  0  0  0  0  0  0  0  0
   52.9076  -32.7072   -5.9405 C   0  0  0  0  0  0  0  0  0  0  0  0
   53.2932  -31.6354   -5.3229 O   0  0  0  0  0  0  0  0  0  0  0  0
   53.7708  -34.8006   -4.9279 C   0  0  0  0  0  0  0  0  0  0  0  0
   54.6241  -34.8215   -3.6975 C   0  0  0  0  0  0  0  0  0  0  0  0
   54.4174  -33.7244   -2.7117 C   0  0  0  0  0  0  0  0  0  0  0  0
   53.9123  -34.0786   -1.4254 N   0  0  0  0  0  0  0  0  0  0  0  0
   52.8775  -33.4733   -0.6956 C   0  0  0  0  0  0  0  0  0  0  0  0
   53.1616  -32.6610    0.2256 N   0  0  0  0  0  0  0  0  0  0  0  0
   51.4858  -33.8109   -0.9685 N   0  0  0  0  0  0  0  0  0  0  0  0
   51.6411  -32.6843   -6.4682 N   0  0  0  0  0  0  0  0  0  0  0  0
   50.5732  -33.6613   -6.4161 C   0  0  2  0  0  0  0  0  0  0  0  0
   49.7597  -33.6849   -7.6661 C   0  0  0  0  0  0  0  0  0  0  0  0
   48.4939  -33.4679   -7.4914 O   0  0  0  0  0  0  0  0  0  0  0  0
   49.6802  -33.2393   -5.2575 C   0  0  0  0  0  0  0  0  0  0  0  0
   49.5339  -34.2596   -4.1899 C   0  0  0  0  0  0  0  0  0  0  0  0
   50.8664  -34.9637   -3.9164 C   0  0  0  0  0  0  0  0  0  0  0  0
   51.2464  -34.8135   -2.5243 N   0  0  0  0  0  0  0  0  0  0  0  0
   52.3663  -35.5449   -2.0485 C   0  0  0  0  0  0  0  0  0  0  0  0
   52.6412  -35.5200   -0.6524 N   0  0  0  0  0  0  0  0  0  0  0  0
   53.1242  -36.2195   -2.8444 N   0  0  0  0  0  0  0  0  0  0  0  0
   50.1736  -33.9034   -8.9661 N   0  0  0  0  0  0  0  0  0  0  0  0
   50.8064  -35.0333   -9.5823 C   0  0  2  0  0  0  0  0  0  0  0  0
   49.9491  -35.6153  -10.6708 C   0  0  0  0  0  0  0  0  0  0  0  0
   50.5300  -36.0414  -11.6837 O   0  0  0  0  0  0  0  0  0  0  0  0
   51.3292  -36.0835   -8.6716 C   0  0  0  0  0  0  0  0  0  0  0  0
   52.1953  -37.0261   -9.5313 C   0  0  0  0  0  0  0  0  0  0  0  0
   53.4001  -37.4903   -8.7212 C   0  0  0  0  0  0  0  0  0  0  0  0
   54.6865  -37.2271   -9.4637 C   0  0  0  0  0  0  0  0  0  0  0  0
   54.9462  -35.8217   -9.6683 N   0  0  0  0  0  0  0  0  0  0  0  0
   48.5381  -35.6819  -10.5618 N   0  0  0  0  0  0  0  0  0  0  0  0
   47.7587  -35.6098   -9.3737 C   0  0  2  0  0  0  0  0  0  0  0  0
   46.3095  -35.6066   -9.5501 C   0  0  0  0  0  0  0  0  0  0  0  0
   45.7064  -34.5051   -9.7650 O   0  0  0  0  0  0  0  0  0  0  0  0
   48.1688  -34.5131   -8.4084 C   0  0  0  0  0  0  0  0  0  0  0  0
   48.4417  -35.0066   -7.0289 C   0  0  0  0  0  0  0  0  0  0  0  0
   47.1948  -35.1982   -6.1837 C   0  0  0  0  0  0  0  0  0  0  0  0
   47.3346  -34.6029   -4.8753 N   0  0  0  0  0  0  0  0  0  0  0  0
   47.9752  -33.3422   -4.7298 C   0  0  0  0  0  0  0  0  0  0  0  0
   47.4538  -32.5391   -3.8622 N   0  0  0  0  0  0  0  0  0  0  0  0
   49.1197  -32.9737   -5.4828 N   0  0  0  0  0  0  0  0  0  0  0  0
   45.4889  -36.7548   -9.5031 N   0  0  0  0  0  0  0  0  0  0  0  0
   45.2076  -37.6344  -10.6196 C   0  0  0  0  0  0  0  0  0  0  0  0
   44.3575  -38.7763  -10.3089 C   0  0  0  0  0  0  0  0  0  0  0  0
   44.1723  -39.1291   -8.9663 C   0  0  0  0  0  0  0  0  0  0  0  0
   43.3809  -40.2030   -8.6234 C   0  0  0  0  0  0  0  0  0  0  0  0
   42.7454  -40.9654   -9.5859 C   0  0  0  0  0  0  0  0  0  0  0  0
   41.9025  -42.1014   -9.2292 C   0  0  0  0  0  0  0  0  0  0  0  0
   41.5068  -42.4104   -7.9153 N   0  0  0  0  0  0  0  0  0  0  0  0
   41.4883  -42.8790  -10.1888 N   0  0  0  0  0  0  0  0  0  0  0  0
   42.9307  -40.6150  -10.9041 C   0  0  0  0  0  0  0  0  0  0  0  0
   43.7341  -39.5235  -11.2755 C   0  0  0  0  0  0  0  0  0  0  0  0
   56.2036  -35.2160   -9.5250 C   0  0  0  0  0  0  0  0  0  0  0  0
   57.2238  -35.7378   -8.5810 C   0  0  0  0  0  0  0  0  0  0  0  0
   56.6817  -35.9741   -7.2129 C   0  0  0  0  0  0  0  0  0  0  0  0
   57.0953  -34.8997   -6.2253 C   0  0  0  0  0  0  0  0  0  0  0  0
   56.4608  -33.6097   -6.4257 C   0  0  0  0  0  0  0  0  0  0  0  0
   56.4933  -34.2009  -10.2070 O   0  0  0  0  0  0  0  0  0  0  0  0
   57.1189  -32.7708   -7.1536 O   0  0  0  0  0  0  0  0  0  0  0  0
   52.5962  -32.2100    0.9053 H   0  0  0  0  0  0  0  0  0  0  0  0
   53.9007  -35.7522   -3.3538 H   0  0  0  0  0  0  0  0  0  0  0  0
   46.6311  -31.9730   -4.1657 H   0  0  0  0  0  0  0  0  0  0  0  0
   41.9130  -43.7999  -10.3913 H   0  0  0  0  0  0  0  0  0  0  0  0
  1  2  1  0
  1 58  1  0
  2  3  1  0
  2  5  1  1
  3  4  2  0
  3 12  1  0
  5  6  1  0
  6  7  1  0
  7  8  1  0
  8  9  1  0
  9 10  2  0
  9 11  1  0
 12 13  1  0
 13 14  1  0
 13 16  1  1
 14 15  2  0
 14 23  1  0
 16 17  1  0
 17 18  1  0
 18 19  1  0
 19 20  1  0
 20 21  1  0
 20 22  2  0
 23 24  1  0
 24 25  1  6
 24 27  1  0
 25 26  2  0
 25 32  1  0
 27 28  1  0
 28 29  1  0
 29 30  1  0
 30 31  1  0
 31 54  1  0
 32 33  1  0
 33 34  1  0
 33 36  1  6
 34 35  2  0
 34 43  1  0
 36 37  1  0
 37 38  1  0
 38 39  1  0
 39 40  1  0
 40 41  2  0
 40 42  1  0
 43 44  1  0
 44 45  1  0
 45 46  2  0
 45 53  1  0
 46 47  1  0
 47 48  2  0
 48 49  1  0
 48 52  1  0
 49 50  1  0
 49 51  2  0
 52 53  2  0
 54 55  1  0
 54 59  2  0
 55 56  1  0
 56 57  1  0
 57 58  1  0
 58 60  2  0
 10 61  1  0
 22 62  1  0
 41 63  1  0
 51 64  1  0
M  END
$$$$
