
     RDKit          3D

 64 65  0  0  0  0  0  0  0  0999 V2000
   53.4143  -34.3649   -7.5778 N   0  0  0  0  0  0  0  0  0  0  0  0
   52.6069  -35.5284   -7.7601 C   0  0  2  0  0  0  0  0  0  0  0  0
   51.3674  -35.3597   -6.9483 C   0  0  0  0  0  0  0  0  0  0  0  0
   51.5606  -34.6470   -5.8836 O   0  0  0  0  0  0  0  0  0  0  0  0
   53.3003  -36.7950   -7.5456 C   0  0  0  0  0  0  0  0  0  0  0  0
   54.1200  -37.0252   -6.3136 C   0  0  0  0  0  0  0  0  0  0  0  0
   54.3362  -35.8565   -5.4163 C   0  0  0  0  0  0  0  0  0  0  0  0
   54.1109  -36.0449   -4.0202 N   0  0  0  0  0  0  0  0  0  0  0  0
   54.8362  -35.5208   -2.9390 C   0  0  0  0  0  0  0  0  0  0  0  0
   55.8053  -36.1748   -2.4675 N   0  0  0  0  0  0  0  0  0  0  0  0
   54.4490  -34.2514   -2.3358 N   0  0  0  0  0  0  0  0  0  0  0  0
   50.0925  -35.8272   -7.1459 N   0  0  0  0  0  0  0  0  0  0  0  0
   49.6102  -37.1408   -7.5192 C   0  0  2  0  0  0  0  0  0  0  0  0
   48.3965  -37.0789   -8.3839 C   0  0  0  0  0  0  0  0  0  0  0  0
   47.3654  -37.7083   -7.9142 O   0  0  0  0  0  0  0  0  0  0  0  0
   49.2479  -37.8365   -6.2143 C   0  0  0  0  0  0  0  0  0  0  0  0
   49.4671  -37.0156   -4.9976 C   0  0  0  0  0  0  0  0  0  0  0  0
   50.6715  -36.0855   -5.1721 C   0  0  0  0  0  0  0  0  0  0  0  0
   50.8079  -35.2070   -4.0255 N   0  0  0  0  0  0  0  0  0  0  0  0
   51.9876  -35.3003   -3.2413 C   0  0  0  0  0  0  0  0  0  0  0  0
   51.9306  -34.8653   -1.8874 N   0  0  0  0  0  0  0  0  0  0  0  0
   53.0892  -35.7643   -3.7250 N   0  0  0  0  0  0  0  0  0  0  0  0
   48.2304  -36.4465   -9.6011 N   0  0  0  0  0  0  0  0  0  0  0  0
   48.8873  -36.6308  -10.8626 C   0  0  2  0  0  0  0  0  0  0  0  0
   47.9176  -37.0587  -11.9280 C   0  0  0  0  0  0  0  0  0  0  0  0
   48.3599  -37.1759  -13.0837 O   0  0  0  0  0  0  0  0  0  0  0  0
   50.1107  -37.4727  -10.8606 C   0  0  0  0  0  0  0  0  0  0  0  0
   50.7785  -37.2893  -12.2383 C   0  0  0  0  0  0  0  0  0  0  0  0
   52.2938  -37.2903  -12.0735 C   0  0  0  0  0  0  0  0  0  0  0  0
   52.9085  -36.0659  -12.7046 C   0  0  0  0  0  0  0  0  0  0  0  0
   52.5064  -34.8355  -12.0650 N   0  0  0  0  0  0  0  0  0  0  0  0
   46.5547  -37.3204  -11.6429 N   0  0  0  0  0  0  0  0  0  0  0  0
   45.7886  -36.8216  -10.5527 C   0  0  2  0  0  0  0  0  0  0  0  0
   44.4517  -37.3851  -10.3904 C   0  0  0  0  0  0  0  0  0  0  0  0
   43.4349  -36.6223  -10.4768 O   0  0  0  0  0  0  0  0  0  0  0  0
   45.7321  -35.3084  -10.4535 C   0  0  0  0  0  0  0  0  0  0  0  0
   46.6116  -34.7491   -9.3882 C   0  0  0  0  0  0  0  0  0  0  0  0
   46.0699  -33.4875   -8.7394 C   0  0  0  0  0  0  0  0  0  0  0  0
   46.9783  -32.9587   -7.7491 N   0  0  0  0  0  0  0  0  0  0  0  0
   46.7209  -33.1591   -6.3655 C   0  0  0  0  0  0  0  0  0  0  0  0
   45.7663  -32.4509   -5.8589 N   0  0  0  0  0  0  0  0  0  0  0  0
   47.4574  -34.0787   -5.5751 N   0  0  0  0  0  0  0  0  0  0  0  0
   44.1757  -38.7468  -10.1384 N   0  0  0  0  0  0  0  0  0  0  0  0
   44.8371  -39.5699   -9.1462 C   0  0  0  0  0  0  0  0  0  0  0  0
   44.2881  -39.4773   -7.7997 C   0  0  0  0  0  0  0  0  0  0  0  0
   43.3640  -38.4627   -7.5203 C   0  0  0  0  0  0  0  0  0  0  0  0
   42.8205  -38.3326   -6.2614 C   0  0  0  0  0  0  0  0  0  0  0  0
   43.1653  -39.1935   -5.2359 C   0  0  0  0  0  0  0  0  0  0  0  0
   42.5902  -39.0638   -3.9016 C   0  0  0  0  0  0  0  0  0  0  0  0
   42.7088  -40.0356   -2.8917 N   0  0  0  0  0  0  0  0  0  0  0  0
   41.9253  -37.9778   -3.6266 N   0  0  0  0  0  0  0  0  0  0  0  0
   44.0741  -40.1889   -5.5152 C   0  0  0  0  0  0  0  0  0  0  0  0
   44.6407  -40.3389   -6.7924 C   0  0  0  0  0  0  0  0  0  0  0  0
   53.3682  -33.7627  -11.7912 C   0  0  0  0  0  0  0  0  0  0  0  0
   54.8149  -33.9653  -11.5262 C   0  0  0  0  0  0  0  0  0  0  0  0
   55.0761  -35.0213  -10.5074 C   0  0  0  0  0  0  0  0  0  0  0  0
   55.4571  -34.4493   -9.1553 C   0  0  0  0  0  0  0  0  0  0  0  0
   54.3728  -33.8033   -8.4384 C   0  0  0  0  0  0  0  0  0  0  0  0
   52.9209  -32.5886  -11.7648 O   0  0  0  0  0  0  0  0  0  0  0  0
   54.2698  -32.5282   -8.6126 O   0  0  0  0  0  0  0  0  0  0  0  0
   56.2467  -37.0107   -2.7700 H   0  0  0  0  0  0  0  0  0  0  0  0
   53.2599  -36.7893   -3.7560 H   0  0  0  0  0  0  0  0  0  0  0  0
   45.8633  -31.4126   -5.9032 H   0  0  0  0  0  0  0  0  0  0  0  0
   41.4370  -37.4183   -4.3463 H   0  0  0  0  0  0  0  0  0  0  0  0
  1  2  1  0
  1 58  1  0
  2  3  1  0
  2  5  1  1
  3  4  2  0
  3 12  1  0
  5  6  1  0
  6  7  1  0
  7  8  1  0
  8  9  1  0
  9 10  2  0
  9 11  1  0
 12 13  1  0
 13 14  1  0
 13 16  1  1
 14 15  2  0
 14 23  1  0
 16 17  1  0
 17 18  1  0
 18 19  1  0
 19 20  1  0
 20 21  1  0
 20 22  2  0
 23 24  1  0
 24 25  1  6
 24 27  1  0
 25 26  2  0
 25 32  1  0
 27 28  1  0
 28 29  1  0
 29 30  1  0
 30 31  1  0
 31 54  1  0
 32 33  1  0
 33 34  1  0
 33 36  1  6
 34 35  2  0
 34 43  1  0
 36 37  1  0
 37 38  1  0
 38 39  1  0
 39 40  1  0
 40 41  2  0
 40 42  1  0
 43 44  1  0
 44 45  1  0
 45 46  2  0
 45 53  1  0
 46 47  1  0
 47 48  2  0
 48 49  1  0
 48 52  1  0
 49 50  1  0
 49 51  2  0
 52 53  2  0
 54 55  1  0
 54 59  2  0
 55 56  1  0
 56 57  1  0
 57 58  1  0
 58 60  2  0
 10 61  1  0
 22 62  1  0
 41 63  1  0
 51 64  1  0
M  END
$$$$
