
     RDKit          3D

 64 65  0  0  0  0  0  0  0  0999 V2000
   53.2148  -34.8142   -7.5899 N   0  0  0  0  0  0  0  0  0  0  0  0
   52.1898  -35.3575   -6.7574 C   0  0  2  0  0  0  0  0  0  0  0  0
   51.1746  -34.2906   -6.5228 C   0  0  0  0  0  0  0  0  0  0  0  0
   51.6886  -33.1013   -6.5302 O   0  0  0  0  0  0  0  0  0  0  0  0
   52.6690  -36.0112   -5.5432 C   0  0  0  0  0  0  0  0  0  0  0  0
   53.7553  -35.3972   -4.7154 C   0  0  0  0  0  0  0  0  0  0  0  0
   53.6354  -33.9442   -4.4114 C   0  0  0  0  0  0  0  0  0  0  0  0
   52.4544  -33.5044   -3.7429 N   0  0  0  0  0  0  0  0  0  0  0  0
   52.1276  -32.2116   -3.3049 C   0  0  0  0  0  0  0  0  0  0  0  0
   52.5908  -31.7926   -2.2099 N   0  0  0  0  0  0  0  0  0  0  0  0
   51.2261  -31.3732   -4.0856 N   0  0  0  0  0  0  0  0  0  0  0  0
   49.8218  -34.3687   -6.3063 N   0  0  0  0  0  0  0  0  0  0  0  0
   49.0479  -35.2283   -5.4347 C   0  0  2  0  0  0  0  0  0  0  0  0
   47.7263  -35.5949   -6.0212 C   0  0  0  0  0  0  0  0  0  0  0  0
   46.7037  -35.2725   -5.2932 O   0  0  0  0  0  0  0  0  0  0  0  0
   48.8142  -34.4268   -4.1615 C   0  0  0  0  0  0  0  0  0  0  0  0
   47.8028  -35.0090   -3.2447 C   0  0  0  0  0  0  0  0  0  0  0  0
   48.3880  -35.2221   -1.8453 C   0  0  0  0  0  0  0  0  0  0  0  0
   49.7873  -34.8402   -1.8139 N   0  0  0  0  0  0  0  0  0  0  0  0
   50.4836  -34.9319   -0.5802 C   0  0  0  0  0  0  0  0  0  0  0  0
   51.8585  -34.5650   -0.5557 N   0  0  0  0  0  0  0  0  0  0  0  0
   49.9028  -35.3337    0.4988 N   0  0  0  0  0  0  0  0  0  0  0  0
   47.4546  -36.2228   -7.2216 N   0  0  0  0  0  0  0  0  0  0  0  0
   47.8209  -37.5172   -7.7187 C   0  0  2  0  0  0  0  0  0  0  0  0
   46.6087  -38.3627   -7.9911 C   0  0  0  0  0  0  0  0  0  0  0  0
   46.4396  -39.3610   -7.2702 O   0  0  0  0  0  0  0  0  0  0  0  0
   48.8495  -38.2609   -6.9477 C   0  0  0  0  0  0  0  0  0  0  0  0
   49.2715  -39.4639   -7.8153 C   0  0  0  0  0  0  0  0  0  0  0  0
   50.7651  -39.7153   -7.6446 C   0  0  0  0  0  0  0  0  0  0  0  0
   51.4639  -39.7572   -8.9807 C   0  0  0  0  0  0  0  0  0  0  0  0
   51.4183  -38.4974   -9.6845 N   0  0  0  0  0  0  0  0  0  0  0  0
   45.6893  -38.0485   -9.0223 N   0  0  0  0  0  0  0  0  0  0  0  0
   45.9816  -37.7812  -10.3888 C   0  0  2  0  0  0  0  0  0  0  0  0
   46.3374  -36.4037  -10.7166 C   0  0  0  0  0  0  0  0  0  0  0  0
   46.3973  -35.5336   -9.7879 O   0  0  0  0  0  0  0  0  0  0  0  0
   44.9518  -38.3022  -11.3741 C   0  0  0  0  0  0  0  0  0  0  0  0
   43.6612  -38.6883  -10.7368 C   0  0  0  0  0  0  0  0  0  0  0  0
   43.4247  -40.1872  -10.6796 C   0  0  0  0  0  0  0  0  0  0  0  0
   42.1598  -40.5095  -10.0616 N   0  0  0  0  0  0  0  0  0  0  0  0
   42.1231  -41.0167   -8.7340 C   0  0  0  0  0  0  0  0  0  0  0  0
   41.0717  -41.6975   -8.4171 N   0  0  0  0  0  0  0  0  0  0  0  0
   43.1702  -40.7987   -7.8021 N   0  0  0  0  0  0  0  0  0  0  0  0
   46.6318  -35.9342  -12.0153 N   0  0  0  0  0  0  0  0  0  0  0  0
   47.5507  -34.8599  -12.3335 C   0  0  0  0  0  0  0  0  0  0  0  0
   48.8481  -34.9399  -11.6750 C   0  0  0  0  0  0  0  0  0  0  0  0
   49.9947  -35.0808  -12.4667 C   0  0  0  0  0  0  0  0  0  0  0  0
   51.2426  -35.1645  -11.8898 C   0  0  0  0  0  0  0  0  0  0  0  0
   51.4065  -35.1124  -10.5179 C   0  0  0  0  0  0  0  0  0  0  0  0
   52.7256  -35.1962   -9.9008 C   0  0  0  0  0  0  0  0  0  0  0  0
   52.9808  -34.9366   -8.5422 N   0  0  0  0  0  0  0  0  0  0  0  0
   53.7320  -35.5348  -10.6557 N   0  0  0  0  0  0  0  0  0  0  0  0
   50.2766  -34.9741   -9.7439 C   0  0  0  0  0  0  0  0  0  0  0  0
   48.9943  -34.8873  -10.3122 C   0  0  0  0  0  0  0  0  0  0  0  0
   52.4964  -37.9399  -10.3883 C   0  0  0  0  0  0  0  0  0  0  0  0
   53.9058  -38.1958   -9.9979 C   0  0  0  0  0  0  0  0  0  0  0  0
   54.1554  -37.9729   -8.5456 C   0  0  0  0  0  0  0  0  0  0  0  0
   54.8788  -36.6687   -8.2691 C   0  0  0  0  0  0  0  0  0  0  0  0
   54.0825  -35.4731   -8.4776 C   0  0  0  0  0  0  0  0  0  0  0  0
   52.2829  -37.1993  -11.3810 O   0  0  0  0  0  0  0  0  0  0  0  0
   54.1824  -34.9323   -9.6456 O   0  0  0  0  0  0  0  0  0  0  0  0
   53.5162  -31.5739   -1.9253 H   0  0  0  0  0  0  0  0  0  0  0  0
   50.4133  -35.3287    1.4044 H   0  0  0  0  0  0  0  0  0  0  0  0
   40.1572  -41.1945   -8.4127 H   0  0  0  0  0  0  0  0  0  0  0  0
   54.6834  -35.1485  -10.5333 H   0  0  0  0  0  0  0  0  0  0  0  0
  1  2  1  0
  1 58  1  0
  2  3  1  0
  2  5  1  1
  3  4  2  0
  3 12  1  0
  5  6  1  0
  6  7  1  0
  7  8  1  0
  8  9  1  0
  9 10  2  0
  9 11  1  0
 12 13  1  0
 13 14  1  0
 13 16  1  1
 14 15  2  0
 14 23  1  0
 16 17  1  0
 17 18  1  0
 18 19  1  0
 19 20  1  0
 20 21  1  0
 20 22  2  0
 23 24  1  0
 24 25  1  1
 24 27  1  0
 25 26  2  0
 25 32  1  0
 27 28  1  0
 28 29  1  0
 29 30  1  0
 30 31  1  0
 31 54  1  0
 32 33  1  0
 33 34  1  0
 33 36  1  6
 34 35  2  0
 34 43  1  0
 36 37  1  0
 37 38  1  0
 38 39  1  0
 39 40  1  0
 40 41  2  0
 40 42  1  0
 43 44  1  0
 44 45  1  0
 45 46  2  0
 45 53  1  0
 46 47  1  0
 47 48  2  0
 48 49  1  0
 48 52  1  0
 49 50  1  0
 49 51  2  0
 52 53  2  0
 54 55  1  0
 54 59  2  0
 55 56  1  0
 56 57  1  0
 57 58  1  0
 58 60  2  0
 10 61  1  0
 22 62  1  0
 41 63  1  0
 51 64  1  0
M  END
$$$$
