
     RDKit          3D

 64 65  0  0  0  0  0  0  0  0999 V2000
   54.2125  -34.1025   -5.7461 N   0  0  0  0  0  0  0  0  0  0  0  0
   53.3620  -35.2437   -5.6295 C   0  0  2  0  0  0  0  0  0  0  0  0
   52.0203  -34.7730   -5.1801 C   0  0  0  0  0  0  0  0  0  0  0  0
   52.0853  -33.7123   -4.4388 O   0  0  0  0  0  0  0  0  0  0  0  0
   53.9127  -36.3398   -4.8381 C   0  0  0  0  0  0  0  0  0  0  0  0
   53.9284  -36.2774   -3.3420 C   0  0  0  0  0  0  0  0  0  0  0  0
   53.7766  -34.9332   -2.7189 C   0  0  0  0  0  0  0  0  0  0  0  0
   52.6346  -34.7133   -1.8926 N   0  0  0  0  0  0  0  0  0  0  0  0
   52.3187  -33.5848   -1.1201 C   0  0  0  0  0  0  0  0  0  0  0  0
   51.1875  -33.5077   -0.5693 N   0  0  0  0  0  0  0  0  0  0  0  0
   53.2716  -32.4894   -0.9887 N   0  0  0  0  0  0  0  0  0  0  0  0
   50.7651  -35.2724   -5.4209 N   0  0  0  0  0  0  0  0  0  0  0  0
   50.2549  -36.6266   -5.3630 C   0  0  2  0  0  0  0  0  0  0  0  0
   49.2113  -36.8882   -6.3961 C   0  0  0  0  0  0  0  0  0  0  0  0
   48.0719  -37.2871   -5.9245 O   0  0  0  0  0  0  0  0  0  0  0  0
   49.6280  -36.7757   -3.9836 C   0  0  0  0  0  0  0  0  0  0  0  0
   49.5083  -35.5079   -3.2216 C   0  0  0  0  0  0  0  0  0  0  0  0
   50.0993  -34.3353   -4.0100 C   0  0  0  0  0  0  0  0  0  0  0  0
   49.8200  -34.4803   -5.4263 N   0  0  0  0  0  0  0  0  0  0  0  0
   50.2229  -33.4390   -6.3030 C   0  0  0  0  0  0  0  0  0  0  0  0
   51.5325  -32.9027   -6.1522 N   0  0  0  0  0  0  0  0  0  0  0  0
   49.4379  -32.9796   -7.2172 N   0  0  0  0  0  0  0  0  0  0  0  0
   49.2994  -36.7613   -7.7691 N   0  0  0  0  0  0  0  0  0  0  0  0
   50.1426  -37.4124   -8.7292 C   0  0  2  0  0  0  0  0  0  0  0  0
   49.3358  -38.2049   -9.7189 C   0  0  0  0  0  0  0  0  0  0  0  0
   49.9590  -38.9650  -10.4798 O   0  0  0  0  0  0  0  0  0  0  0  0
   51.2817  -38.1990   -8.1912 C   0  0  0  0  0  0  0  0  0  0  0  0
   52.1828  -38.5537   -9.3913 C   0  0  0  0  0  0  0  0  0  0  0  0
   53.6446  -38.5020   -8.9628 C   0  0  0  0  0  0  0  0  0  0  0  0
   54.4465  -37.6105   -9.8780 C   0  0  0  0  0  0  0  0  0  0  0  0
   54.0364  -36.2272   -9.8248 N   0  0  0  0  0  0  0  0  0  0  0  0
   47.9249  -38.1004   -9.7939 N   0  0  0  0  0  0  0  0  0  0  0  0
   47.1460  -37.7064  -10.9175 C   0  0  2  0  0  0  0  0  0  0  0  0
   47.1486  -36.2822  -11.2388 C   0  0  0  0  0  0  0  0  0  0  0  0
   48.2586  -35.6679  -11.3561 O   0  0  0  0  0  0  0  0  0  0  0  0
   45.7256  -38.2403  -10.9266 C   0  0  0  0  0  0  0  0  0  0  0  0
   45.6411  -39.7092  -10.6897 C   0  0  0  0  0  0  0  0  0  0  0  0
   44.2290  -40.2644  -10.7509 C   0  0  0  0  0  0  0  0  0  0  0  0
   44.0008  -41.2682   -9.7381 N   0  0  0  0  0  0  0  0  0  0  0  0
   45.0113  -42.2222   -9.4385 C   0  0  0  0  0  0  0  0  0  0  0  0
   45.8460  -42.4804  -10.3904 N   0  0  0  0  0  0  0  0  0  0  0  0
   45.1117  -42.8598   -8.1752 N   0  0  0  0  0  0  0  0  0  0  0  0
   45.9912  -35.4986  -11.4388 N   0  0  0  0  0  0  0  0  0  0  0  0
   44.7988  -35.5335  -10.6162 C   0  0  0  0  0  0  0  0  0  0  0  0
   44.8413  -34.6899   -9.4289 C   0  0  0  0  0  0  0  0  0  0  0  0
   46.0825  -34.2137   -8.9883 C   0  0  0  0  0  0  0  0  0  0  0  0
   46.1735  -33.4163   -7.8688 C   0  0  0  0  0  0  0  0  0  0  0  0
   45.0504  -33.0598   -7.1456 C   0  0  0  0  0  0  0  0  0  0  0  0
   45.1394  -32.2122   -5.9617 C   0  0  0  0  0  0  0  0  0  0  0  0
   44.0402  -31.5672   -5.3667 N   0  0  0  0  0  0  0  0  0  0  0  0
   46.3117  -32.0427   -5.4193 N   0  0  0  0  0  0  0  0  0  0  0  0
   43.8328  -33.5304   -7.5824 C   0  0  0  0  0  0  0  0  0  0  0  0
   43.7178  -34.3453   -8.7215 C   0  0  0  0  0  0  0  0  0  0  0  0
   54.9182  -35.1359   -9.8144 C   0  0  0  0  0  0  0  0  0  0  0  0
   56.2808  -35.2326   -9.2327 C   0  0  0  0  0  0  0  0  0  0  0  0
   56.2876  -35.8272   -7.8661 C   0  0  0  0  0  0  0  0  0  0  0  0
   56.4786  -34.7893   -6.7766 C   0  0  0  0  0  0  0  0  0  0  0  0
   55.3410  -33.9136   -6.5619 C   0  0  0  0  0  0  0  0  0  0  0  0
   54.5622  -34.0359  -10.3071 O   0  0  0  0  0  0  0  0  0  0  0  0
   55.3646  -32.7982   -7.2114 O   0  0  0  0  0  0  0  0  0  0  0  0
   50.3573  -34.0382   -0.6897 H   0  0  0  0  0  0  0  0  0  0  0  0
   48.8048  -33.6194   -7.7374 H   0  0  0  0  0  0  0  0  0  0  0  0
   45.5759  -42.1935  -11.3568 H   0  0  0  0  0  0  0  0  0  0  0  0
   46.5919  -32.4913   -4.5307 H   0  0  0  0  0  0  0  0  0  0  0  0
  1  2  1  0
  1 58  1  0
  2  3  1  0
  2  5  1  1
  3  4  2  0
  3 12  1  0
  5  6  1  0
  6  7  1  0
  7  8  1  0
  8  9  1  0
  9 10  2  0
  9 11  1  0
 12 13  1  0
 13 14  1  0
 13 16  1  1
 14 15  2  0
 14 23  1  0
 16 17  1  0
 17 18  1  0
 18 19  1  0
 19 20  1  0
 20 21  1  0
 20 22  2  0
 23 24  1  0
 24 25  1  1
 24 27  1  0
 25 26  2  0
 25 32  1  0
 27 28  1  0
 28 29  1  0
 29 30  1  0
 30 31  1  0
 31 54  1  0
 32 33  1  0
 33 34  1  0
 33 36  1  1
 34 35  2  0
 34 43  1  0
 36 37  1  0
 37 38  1  0
 38 39  1  0
 39 40  1  0
 40 41  2  0
 40 42  1  0
 43 44  1  0
 44 45  1  0
 45 46  2  0
 45 53  1  0
 46 47  1  0
 47 48  2  0
 48 49  1  0
 48 52  1  0
 49 50  1  0
 49 51  2  0
 52 53  2  0
 54 55  1  0
 54 59  2  0
 55 56  1  0
 56 57  1  0
 57 58  1  0
 58 60  2  0
 10 61  1  0
 22 62  1  0
 41 63  1  0
 51 64  1  0
M  END
$$$$
