
     RDKit          3D

 64 65  0  0  0  0  0  0  0  0999 V2000
   52.5036  -32.5715   -2.8288 N   0  0  0  0  0  0  0  0  0  0  0  0
   51.6566  -33.6057   -3.3307 C   0  0  2  0  0  0  0  0  0  0  0  0
   50.3074  -33.0182   -3.5721 C   0  0  0  0  0  0  0  0  0  0  0  0
   50.0325  -32.0471   -2.7596 O   0  0  0  0  0  0  0  0  0  0  0  0
   51.6475  -34.8300   -2.5355 C   0  0  0  0  0  0  0  0  0  0  0  0
   52.6021  -35.0158   -1.3968 C   0  0  0  0  0  0  0  0  0  0  0  0
   53.0475  -33.7888   -0.6797 C   0  0  0  0  0  0  0  0  0  0  0  0
   54.4118  -33.7228   -0.2680 N   0  0  0  0  0  0  0  0  0  0  0  0
   55.0343  -32.7626    0.5446 C   0  0  0  0  0  0  0  0  0  0  0  0
   55.6472  -33.1321    1.5823 N   0  0  0  0  0  0  0  0  0  0  0  0
   54.9388  -31.3450    0.2183 N   0  0  0  0  0  0  0  0  0  0  0  0
   49.3400  -33.3355   -4.4922 N   0  0  0  0  0  0  0  0  0  0  0  0
   48.8009  -34.6165   -4.8995 C   0  0  2  0  0  0  0  0  0  0  0  0
   48.4425  -34.6509   -6.3469 C   0  0  0  0  0  0  0  0  0  0  0  0
   47.2050  -34.9495   -6.5905 O   0  0  0  0  0  0  0  0  0  0  0  0
   47.5358  -34.8155   -4.0760 C   0  0  0  0  0  0  0  0  0  0  0  0
   47.6886  -34.5153   -2.6307 C   0  0  0  0  0  0  0  0  0  0  0  0
   49.1494  -34.2121   -2.2840 C   0  0  0  0  0  0  0  0  0  0  0  0
   49.3579  -34.2797   -0.8499 N   0  0  0  0  0  0  0  0  0  0  0  0
   50.6722  -34.0847   -0.3497 C   0  0  0  0  0  0  0  0  0  0  0  0
   51.7346  -33.9497   -1.2869 N   0  0  0  0  0  0  0  0  0  0  0  0
   50.9155  -34.0282    0.9154 N   0  0  0  0  0  0  0  0  0  0  0  0
   49.2453  -34.4085   -7.4450 N   0  0  0  0  0  0  0  0  0  0  0  0
   50.4293  -35.0657   -7.9174 C   0  0  2  0  0  0  0  0  0  0  0  0
   50.2196  -35.6577   -9.2827 C   0  0  0  0  0  0  0  0  0  0  0  0
   50.9142  -35.2065  -10.2095 O   0  0  0  0  0  0  0  0  0  0  0  0
   51.0703  -36.0325   -6.9900 C   0  0  0  0  0  0  0  0  0  0  0  0
   52.4458  -36.3816   -7.5932 C   0  0  0  0  0  0  0  0  0  0  0  0
   53.4652  -36.5494   -6.4725 C   0  0  0  0  0  0  0  0  0  0  0  0
   54.6764  -35.6815   -6.7069 C   0  0  0  0  0  0  0  0  0  0  0  0
   54.3773  -34.2694   -6.6742 N   0  0  0  0  0  0  0  0  0  0  0  0
   49.2743  -36.6862   -9.5190 N   0  0  0  0  0  0  0  0  0  0  0  0
   47.8725  -36.5429   -9.7162 C   0  0  2  0  0  0  0  0  0  0  0  0
   47.0203  -37.5041   -9.0226 C   0  0  0  0  0  0  0  0  0  0  0  0
   47.3032  -37.8453   -7.8281 O   0  0  0  0  0  0  0  0  0  0  0  0
   47.4429  -36.4164  -11.1661 C   0  0  0  0  0  0  0  0  0  0  0  0
   48.5833  -36.4088  -12.1256 C   0  0  0  0  0  0  0  0  0  0  0  0
   48.3700  -35.5105  -13.3312 C   0  0  0  0  0  0  0  0  0  0  0  0
   47.0095  -35.0329  -13.4128 N   0  0  0  0  0  0  0  0  0  0  0  0
   46.2638  -35.2043  -14.6109 C   0  0  0  0  0  0  0  0  0  0  0  0
   46.8746  -35.8080  -15.5763 N   0  0  0  0  0  0  0  0  0  0  0  0
   44.9283  -34.7474  -14.7533 N   0  0  0  0  0  0  0  0  0  0  0  0
   45.8708  -38.1091   -9.5761 N   0  0  0  0  0  0  0  0  0  0  0  0
   44.8758  -37.4391  -10.3889 C   0  0  0  0  0  0  0  0  0  0  0  0
   44.4017  -38.1990  -11.5382 C   0  0  0  0  0  0  0  0  0  0  0  0
   44.0087  -39.5296  -11.3468 C   0  0  0  0  0  0  0  0  0  0  0  0
   43.5572  -40.2892  -12.4034 C   0  0  0  0  0  0  0  0  0  0  0  0
   43.4762  -39.7684  -13.6817 C   0  0  0  0  0  0  0  0  0  0  0  0
   42.9950  -40.5662  -14.8042 C   0  0  0  0  0  0  0  0  0  0  0  0
   42.1253  -40.0861  -15.7999 N   0  0  0  0  0  0  0  0  0  0  0  0
   43.3974  -41.8022  -14.8913 N   0  0  0  0  0  0  0  0  0  0  0  0
   43.8638  -38.4604  -13.8648 C   0  0  0  0  0  0  0  0  0  0  0  0
   44.3276  -37.6683  -12.8008 C   0  0  0  0  0  0  0  0  0  0  0  0
   55.1816  -33.3001   -6.0560 C   0  0  0  0  0  0  0  0  0  0  0  0
   56.0278  -33.6167   -4.8779 C   0  0  0  0  0  0  0  0  0  0  0  0
   55.2828  -34.3324   -3.8036 C   0  0  0  0  0  0  0  0  0  0  0  0
   54.9308  -33.4317   -2.6351 C   0  0  0  0  0  0  0  0  0  0  0  0
   53.9009  -32.4471   -2.9121 C   0  0  0  0  0  0  0  0  0  0  0  0
   55.1993  -32.1237   -6.4979 O   0  0  0  0  0  0  0  0  0  0  0  0
   54.3242  -31.2873   -3.2895 O   0  0  0  0  0  0  0  0  0  0  0  0
   56.4648  -32.7844    2.0249 H   0  0  0  0  0  0  0  0  0  0  0  0
   50.1955  -34.3259    1.6036 H   0  0  0  0  0  0  0  0  0  0  0  0
   47.6989  -35.3267  -15.9983 H   0  0  0  0  0  0  0  0  0  0  0  0
   43.3987  -42.4526  -14.0873 H   0  0  0  0  0  0  0  0  0  0  0  0
  1  2  1  0
  1 58  1  0
  2  3  1  0
  2  5  1  1
  3  4  2  0
  3 12  1  0
  5  6  1  0
  6  7  1  0
  7  8  1  0
  8  9  1  0
  9 10  2  0
  9 11  1  0
 12 13  1  0
 13 14  1  0
 13 16  1  1
 14 15  2  0
 14 23  1  0
 16 17  1  0
 17 18  1  0
 18 19  1  0
 19 20  1  0
 20 21  1  0
 20 22  2  0
 23 24  1  0
 24 25  1  6
 24 27  1  0
 25 26  2  0
 25 32  1  0
 27 28  1  0
 28 29  1  0
 29 30  1  0
 30 31  1  0
 31 54  1  0
 32 33  1  0
 33 34  1  0
 33 36  1  6
 34 35  2  0
 34 43  1  0
 36 37  1  0
 37 38  1  0
 38 39  1  0
 39 40  1  0
 40 41  2  0
 40 42  1  0
 43 44  1  0
 44 45  1  0
 45 46  2  0
 45 53  1  0
 46 47  1  0
 47 48  2  0
 48 49  1  0
 48 52  1  0
 49 50  1  0
 49 51  2  0
 52 53  2  0
 54 55  1  0
 54 59  2  0
 55 56  1  0
 56 57  1  0
 57 58  1  0
 58 60  2  0
 10 61  1  0
 22 62  1  0
 41 63  1  0
 51 64  1  0
M  END
$$$$
