
     RDKit          3D

 64 65  0  0  0  0  0  0  0  0999 V2000
   51.2821  -33.9218   -5.9963 N   0  0  0  0  0  0  0  0  0  0  0  0
   50.1987  -34.6402   -5.4054 C   0  0  2  0  0  0  0  0  0  0  0  0
   48.9816  -33.7820   -5.4828 C   0  0  0  0  0  0  0  0  0  0  0  0
   49.2581  -32.5172   -5.4338 O   0  0  0  0  0  0  0  0  0  0  0  0
   50.4732  -35.1788   -4.0766 C   0  0  0  0  0  0  0  0  0  0  0  0
   50.8217  -34.2736   -2.9356 C   0  0  0  0  0  0  0  0  0  0  0  0
   51.9945  -33.3741   -3.1190 C   0  0  0  0  0  0  0  0  0  0  0  0
   52.6704  -33.4176   -4.3746 N   0  0  0  0  0  0  0  0  0  0  0  0
   53.7938  -32.6852   -4.7885 C   0  0  0  0  0  0  0  0  0  0  0  0
   54.3170  -31.8536   -3.9987 N   0  0  0  0  0  0  0  0  0  0  0  0
   54.3284  -32.8505   -6.1346 N   0  0  0  0  0  0  0  0  0  0  0  0
   47.6543  -34.1120   -5.5940 N   0  0  0  0  0  0  0  0  0  0  0  0
   46.8575  -35.0931   -4.8869 C   0  0  2  0  0  0  0  0  0  0  0  0
   45.8104  -35.7091   -5.7523 C   0  0  0  0  0  0  0  0  0  0  0  0
   44.5987  -35.5780   -5.3112 O   0  0  0  0  0  0  0  0  0  0  0  0
   46.1759  -34.3369   -3.7549 C   0  0  0  0  0  0  0  0  0  0  0  0
   47.0345  -34.1012   -2.5676 C   0  0  0  0  0  0  0  0  0  0  0  0
   47.4675  -35.4254   -1.9312 C   0  0  0  0  0  0  0  0  0  0  0  0
   48.9121  -35.4850   -1.8106 N   0  0  0  0  0  0  0  0  0  0  0  0
   49.4867  -36.5894   -1.1282 C   0  0  0  0  0  0  0  0  0  0  0  0
   49.4920  -37.8539   -1.7812 N   0  0  0  0  0  0  0  0  0  0  0  0
   49.9951  -36.4689    0.0508 N   0  0  0  0  0  0  0  0  0  0  0  0
   45.9614  -36.3896   -6.9452 N   0  0  0  0  0  0  0  0  0  0  0  0
   46.6666  -37.5967   -7.2654 C   0  0  2  0  0  0  0  0  0  0  0  0
   45.7325  -38.6588   -7.7731 C   0  0  0  0  0  0  0  0  0  0  0  0
   45.4760  -39.6026   -7.0060 O   0  0  0  0  0  0  0  0  0  0  0  0
   47.5899  -38.1244   -6.2287 C   0  0  0  0  0  0  0  0  0  0  0  0
   48.4231  -39.2350   -6.8997 C   0  0  0  0  0  0  0  0  0  0  0  0
   49.8484  -39.1979   -6.3607 C   0  0  0  0  0  0  0  0  0  0  0  0
   50.8512  -39.1210   -7.4848 C   0  0  0  0  0  0  0  0  0  0  0  0
   50.7540  -37.9001   -8.2492 N   0  0  0  0  0  0  0  0  0  0  0  0
   45.1613  -38.6010   -9.0683 N   0  0  0  0  0  0  0  0  0  0  0  0
   45.4886  -37.6977  -10.1177 C   0  0  2  0  0  0  0  0  0  0  0  0
   45.7983  -38.2960  -11.4129 C   0  0  0  0  0  0  0  0  0  0  0  0
   47.0133  -38.3956  -11.7831 O   0  0  0  0  0  0  0  0  0  0  0  0
   46.5346  -36.6581   -9.7601 C   0  0  0  0  0  0  0  0  0  0  0  0
   46.6090  -35.5308  -10.7321 C   0  0  0  0  0  0  0  0  0  0  0  0
   47.6913  -34.5136  -10.4163 C   0  0  0  0  0  0  0  0  0  0  0  0
   48.4609  -34.1651  -11.5876 N   0  0  0  0  0  0  0  0  0  0  0  0
   49.4243  -33.1216  -11.5238 C   0  0  0  0  0  0  0  0  0  0  0  0
   49.7463  -32.5788  -12.6513 N   0  0  0  0  0  0  0  0  0  0  0  0
   50.0052  -32.6896  -10.3038 N   0  0  0  0  0  0  0  0  0  0  0  0
   44.8386  -38.7916  -12.3224 N   0  0  0  0  0  0  0  0  0  0  0  0
   44.3532  -38.0948  -13.4964 C   0  0  0  0  0  0  0  0  0  0  0  0
   45.3482  -37.2913  -14.1946 C   0  0  0  0  0  0  0  0  0  0  0  0
   46.5749  -37.8807  -14.5249 C   0  0  0  0  0  0  0  0  0  0  0  0
   47.5480  -37.1602  -15.1815 C   0  0  0  0  0  0  0  0  0  0  0  0
   47.3495  -35.8386  -15.5357 C   0  0  0  0  0  0  0  0  0  0  0  0
   48.3744  -35.0712  -16.2349 C   0  0  0  0  0  0  0  0  0  0  0  0
   48.2318  -33.7246  -16.6153 N   0  0  0  0  0  0  0  0  0  0  0  0
   49.4943  -35.6706  -16.5243 N   0  0  0  0  0  0  0  0  0  0  0  0
   46.1424  -35.2635  -15.2087 C   0  0  0  0  0  0  0  0  0  0  0  0
   45.1365  -35.9805  -14.5388 C   0  0  0  0  0  0  0  0  0  0  0  0
   51.8536  -37.1563   -8.7035 C   0  0  0  0  0  0  0  0  0  0  0  0
   53.1452  -37.1371   -7.9717 C   0  0  0  0  0  0  0  0  0  0  0  0
   52.9840  -36.8557   -6.5170 C   0  0  0  0  0  0  0  0  0  0  0  0
   53.3689  -35.4355   -6.1490 C   0  0  0  0  0  0  0  0  0  0  0  0
   52.4463  -34.4142   -6.6103 C   0  0  0  0  0  0  0  0  0  0  0  0
   51.7617  -36.4799   -9.7588 O   0  0  0  0  0  0  0  0  0  0  0  0
   52.7323  -33.8766   -7.7487 O   0  0  0  0  0  0  0  0  0  0  0  0
   54.7495  -30.9745   -4.1576 H   0  0  0  0  0  0  0  0  0  0  0  0
   50.7868  -37.0741    0.3468 H   0  0  0  0  0  0  0  0  0  0  0  0
   48.9738  -32.3690  -13.3211 H   0  0  0  0  0  0  0  0  0  0  0  0
   49.7310  -36.6178  -16.1838 H   0  0  0  0  0  0  0  0  0  0  0  0
  1  2  1  0
  1 58  1  0
  2  3  1  0
  2  5  1  1
  3  4  2  0
  3 12  1  0
  5  6  1  0
  6  7  1  0
  7  8  1  0
  8  9  1  0
  9 10  2  0
  9 11  1  0
 12 13  1  0
 13 14  1  0
 13 16  1  1
 14 15  2  0
 14 23  1  0
 16 17  1  0
 17 18  1  0
 18 19  1  0
 19 20  1  0
 20 21  1  0
 20 22  2  0
 23 24  1  0
 24 25  1  1
 24 27  1  0
 25 26  2  0
 25 32  1  0
 27 28  1  0
 28 29  1  0
 29 30  1  0
 30 31  1  0
 31 54  1  0
 32 33  1  0
 33 34  1  0
 33 36  1  1
 34 35  2  0
 34 43  1  0
 36 37  1  0
 37 38  1  0
 38 39  1  0
 39 40  1  0
 40 41  2  0
 40 42  1  0
 43 44  1  0
 44 45  1  0
 45 46  2  0
 45 53  1  0
 46 47  1  0
 47 48  2  0
 48 49  1  0
 48 52  1  0
 49 50  1  0
 49 51  2  0
 52 53  2  0
 54 55  1  0
 54 59  2  0
 55 56  1  0
 56 57  1  0
 57 58  1  0
 58 60  2  0
 10 61  1  0
 22 62  1  0
 41 63  1  0
 51 64  1  0
M  END
$$$$
