
     RDKit          3D

 64 65  0  0  0  0  0  0  0  0999 V2000
   54.3185  -33.8069   -3.8825 N   0  0  0  0  0  0  0  0  0  0  0  0
   53.0586  -34.4473   -4.0860 C   0  0  2  0  0  0  0  0  0  0  0  0
   51.9927  -33.5366   -3.5776 C   0  0  0  0  0  0  0  0  0  0  0  0
   52.3944  -32.7988   -2.5912 O   0  0  0  0  0  0  0  0  0  0  0  0
   52.9768  -35.8136   -3.5785 C   0  0  0  0  0  0  0  0  0  0  0  0
   53.6003  -36.1875   -2.2693 C   0  0  0  0  0  0  0  0  0  0  0  0
   53.5903  -35.1555   -1.1955 C   0  0  0  0  0  0  0  0  0  0  0  0
   54.8439  -34.7833   -0.6253 N   0  0  0  0  0  0  0  0  0  0  0  0
   55.0957  -33.8791    0.4181 C   0  0  0  0  0  0  0  0  0  0  0  0
   54.4298  -33.9629    1.4852 N   0  0  0  0  0  0  0  0  0  0  0  0
   56.0880  -32.8234    0.2573 N   0  0  0  0  0  0  0  0  0  0  0  0
   50.6919  -33.3628   -3.9785 N   0  0  0  0  0  0  0  0  0  0  0  0
   49.6548  -34.3275   -4.2810 C   0  0  2  0  0  0  0  0  0  0  0  0
   48.7558  -33.8731   -5.3811 C   0  0  0  0  0  0  0  0  0  0  0  0
   47.5006  -33.8140   -5.0637 O   0  0  0  0  0  0  0  0  0  0  0  0
   48.8358  -34.4706   -3.0056 C   0  0  0  0  0  0  0  0  0  0  0  0
   49.0465  -33.3869   -2.0140 C   0  0  0  0  0  0  0  0  0  0  0  0
   50.1511  -32.4300   -2.4723 C   0  0  0  0  0  0  0  0  0  0  0  0
   50.3823  -31.4023   -1.4745 N   0  0  0  0  0  0  0  0  0  0  0  0
   50.9950  -31.7772   -0.2500 C   0  0  0  0  0  0  0  0  0  0  0  0
   52.3990  -32.0096   -0.2446 N   0  0  0  0  0  0  0  0  0  0  0  0
   50.3143  -31.9077    0.8375 N   0  0  0  0  0  0  0  0  0  0  0  0
   49.0821  -33.5112   -6.6740 N   0  0  0  0  0  0  0  0  0  0  0  0
   49.6975  -34.2496   -7.7384 C   0  0  2  0  0  0  0  0  0  0  0  0
   48.7801  -34.3717   -8.9224 C   0  0  0  0  0  0  0  0  0  0  0  0
   48.3196  -33.3181   -9.3944 O   0  0  0  0  0  0  0  0  0  0  0  0
   50.3091  -35.5541   -7.3783 C   0  0  0  0  0  0  0  0  0  0  0  0
   51.1353  -36.0093   -8.5981 C   0  0  0  0  0  0  0  0  0  0  0  0
   52.4055  -36.7043   -8.1217 C   0  0  0  0  0  0  0  0  0  0  0  0
   53.6293  -36.0907   -8.7551 C   0  0  0  0  0  0  0  0  0  0  0  0
   53.8390  -34.7155   -8.3687 N   0  0  0  0  0  0  0  0  0  0  0  0
   48.4446  -35.6270   -9.4871 N   0  0  0  0  0  0  0  0  0  0  0  0
   47.3760  -35.9145  -10.3815 C   0  0  2  0  0  0  0  0  0  0  0  0
   47.1896  -37.3183  -10.7364 C   0  0  0  0  0  0  0  0  0  0  0  0
   47.8190  -37.8021  -11.7329 O   0  0  0  0  0  0  0  0  0  0  0  0
   47.3405  -35.0521  -11.6296 C   0  0  0  0  0  0  0  0  0  0  0  0
   48.2744  -35.5114  -12.6963 C   0  0  0  0  0  0  0  0  0  0  0  0
   48.6111  -34.4448  -13.7235 C   0  0  0  0  0  0  0  0  0  0  0  0
   47.4244  -33.8827  -14.3247 N   0  0  0  0  0  0  0  0  0  0  0  0
   46.8448  -34.4967  -15.4685 C   0  0  0  0  0  0  0  0  0  0  0  0
   47.6660  -34.8338  -16.4073 N   0  0  0  0  0  0  0  0  0  0  0  0
   45.4510  -34.7335  -15.5865 N   0  0  0  0  0  0  0  0  0  0  0  0
   46.3460  -38.2186  -10.0496 N   0  0  0  0  0  0  0  0  0  0  0  0
   45.1371  -37.8607   -9.3355 C   0  0  0  0  0  0  0  0  0  0  0  0
   44.1555  -38.9298   -9.2060 C   0  0  0  0  0  0  0  0  0  0  0  0
   44.1002  -39.9140  -10.2007 C   0  0  0  0  0  0  0  0  0  0  0  0
   43.1868  -40.9421  -10.1240 C   0  0  0  0  0  0  0  0  0  0  0  0
   42.2983  -41.0384   -9.0690 C   0  0  0  0  0  0  0  0  0  0  0  0
   41.3313  -42.1270   -8.9796 C   0  0  0  0  0  0  0  0  0  0  0  0
   41.1519  -43.1084   -9.9710 N   0  0  0  0  0  0  0  0  0  0  0  0
   40.5870  -42.1959   -7.9126 N   0  0  0  0  0  0  0  0  0  0  0  0
   42.3562  -40.0686   -8.0939 C   0  0  0  0  0  0  0  0  0  0  0  0
   43.2800  -39.0113   -8.1532 C   0  0  0  0  0  0  0  0  0  0  0  0
   55.0881  -34.1593   -8.0539 C   0  0  0  0  0  0  0  0  0  0  0  0
   56.1851  -34.9718   -7.4701 C   0  0  0  0  0  0  0  0  0  0  0  0
   55.7470  -35.7816   -6.2981 C   0  0  0  0  0  0  0  0  0  0  0  0
   56.2027  -35.1934   -4.9764 C   0  0  0  0  0  0  0  0  0  0  0  0
   55.5239  -33.9711   -4.5860 C   0  0  0  0  0  0  0  0  0  0  0  0
   55.3037  -32.9393   -8.2651 O   0  0  0  0  0  0  0  0  0  0  0  0
   56.1080  -32.8731   -4.9322 O   0  0  0  0  0  0  0  0  0  0  0  0
   53.8831  -34.6987    1.8658 H   0  0  0  0  0  0  0  0  0  0  0  0
   50.7922  -31.9070    1.7607 H   0  0  0  0  0  0  0  0  0  0  0  0
   48.6801  -34.6440  -16.2492 H   0  0  0  0  0  0  0  0  0  0  0  0
   39.8972  -42.9498   -7.7543 H   0  0  0  0  0  0  0  0  0  0  0  0
  1  2  1  0
  1 58  1  0
  2  3  1  0
  2  5  1  1
  3  4  2  0
  3 12  1  0
  5  6  1  0
  6  7  1  0
  7  8  1  0
  8  9  1  0
  9 10  2  0
  9 11  1  0
 12 13  1  0
 13 14  1  0
 13 16  1  1
 14 15  2  0
 14 23  1  0
 16 17  1  0
 17 18  1  0
 18 19  1  0
 19 20  1  0
 20 21  1  0
 20 22  2  0
 23 24  1  0
 24 25  1  6
 24 27  1  0
 25 26  2  0
 25 32  1  0
 27 28  1  0
 28 29  1  0
 29 30  1  0
 30 31  1  0
 31 54  1  0
 32 33  1  0
 33 34  1  0
 33 36  1  6
 34 35  2  0
 34 43  1  0
 36 37  1  0
 37 38  1  0
 38 39  1  0
 39 40  1  0
 40 41  2  0
 40 42  1  0
 43 44  1  0
 44 45  1  0
 45 46  2  0
 45 53  1  0
 46 47  1  0
 47 48  2  0
 48 49  1  0
 48 52  1  0
 49 50  1  0
 49 51  2  0
 52 53  2  0
 54 55  1  0
 54 59  2  0
 55 56  1  0
 56 57  1  0
 57 58  1  0
 58 60  2  0
 10 61  1  0
 22 62  1  0
 41 63  1  0
 51 64  1  0
M  END
$$$$
