
     RDKit          3D

 64 65  0  0  0  0  0  0  0  0999 V2000
   52.3142  -34.4322   -4.5291 N   0  0  0  0  0  0  0  0  0  0  0  0
   51.1273  -34.9172   -5.1576 C   0  0  2  0  0  0  0  0  0  0  0  0
   50.0979  -33.8405   -5.0889 C   0  0  0  0  0  0  0  0  0  0  0  0
   50.2298  -33.0891   -4.0417 O   0  0  0  0  0  0  0  0  0  0  0  0
   50.6704  -36.2194   -4.6816 C   0  0  0  0  0  0  0  0  0  0  0  0
   51.5875  -37.1265   -3.9208 C   0  0  0  0  0  0  0  0  0  0  0  0
   52.5960  -36.4814   -3.0350 C   0  0  0  0  0  0  0  0  0  0  0  0
   52.1129  -35.6814   -1.9571 N   0  0  0  0  0  0  0  0  0  0  0  0
   52.8335  -35.1303   -0.8861 C   0  0  0  0  0  0  0  0  0  0  0  0
   53.4310  -34.0312   -1.0414 N   0  0  0  0  0  0  0  0  0  0  0  0
   52.9284  -35.8405    0.3835 N   0  0  0  0  0  0  0  0  0  0  0  0
   49.0634  -33.5302   -5.9355 N   0  0  0  0  0  0  0  0  0  0  0  0
   48.0695  -34.3722   -6.5685 C   0  0  2  0  0  0  0  0  0  0  0  0
   47.6947  -33.8889   -7.9289 C   0  0  0  0  0  0  0  0  0  0  0  0
   46.4318  -33.6440   -8.0866 O   0  0  0  0  0  0  0  0  0  0  0  0
   46.8414  -34.3118   -5.6708 C   0  0  0  0  0  0  0  0  0  0  0  0
   46.8530  -33.2020   -4.6857 C   0  0  0  0  0  0  0  0  0  0  0  0
   47.9703  -33.3934   -3.6557 C   0  0  0  0  0  0  0  0  0  0  0  0
   49.0324  -32.4285   -3.8699 N   0  0  0  0  0  0  0  0  0  0  0  0
   50.2383  -32.8756   -4.4710 C   0  0  0  0  0  0  0  0  0  0  0  0
   51.3947  -32.9942   -3.6499 N   0  0  0  0  0  0  0  0  0  0  0  0
   50.3029  -33.1714   -5.7245 N   0  0  0  0  0  0  0  0  0  0  0  0
   48.5062  -33.6705   -9.0256 N   0  0  0  0  0  0  0  0  0  0  0  0
   49.3414  -34.5602   -9.7792 C   0  0  2  0  0  0  0  0  0  0  0  0
   48.8939  -34.6509  -11.2110 C   0  0  0  0  0  0  0  0  0  0  0  0
   49.6905  -34.2576  -12.0803 O   0  0  0  0  0  0  0  0  0  0  0  0
   49.5862  -35.9023   -9.1923 C   0  0  0  0  0  0  0  0  0  0  0  0
   50.7129  -36.5510  -10.0215 C   0  0  0  0  0  0  0  0  0  0  0  0
   51.6153  -37.3670   -9.1032 C   0  0  0  0  0  0  0  0  0  0  0  0
   53.0603  -36.9666   -9.2675 C   0  0  0  0  0  0  0  0  0  0  0  0
   53.3210  -35.6051   -8.8639 N   0  0  0  0  0  0  0  0  0  0  0  0
   47.6215  -35.1600  -11.5701 N   0  0  0  0  0  0  0  0  0  0  0  0
   46.5393  -35.4730  -10.7012 C   0  0  2  0  0  0  0  0  0  0  0  0
   46.8139  -36.4509   -9.6525 C   0  0  0  0  0  0  0  0  0  0  0  0
   47.9526  -36.4547   -9.0812 O   0  0  0  0  0  0  0  0  0  0  0  0
   45.2371  -35.8124  -11.4025 C   0  0  0  0  0  0  0  0  0  0  0  0
   44.9172  -34.8999  -12.5366 C   0  0  0  0  0  0  0  0  0  0  0  0
   44.1316  -35.5588  -13.6566 C   0  0  0  0  0  0  0  0  0  0  0  0
   43.0544  -36.3766  -13.1500 N   0  0  0  0  0  0  0  0  0  0  0  0
   42.9896  -37.7573  -13.4826 C   0  0  0  0  0  0  0  0  0  0  0  0
   42.6990  -38.0305  -14.7116 N   0  0  0  0  0  0  0  0  0  0  0  0
   43.2287  -38.7851  -12.5344 N   0  0  0  0  0  0  0  0  0  0  0  0
   45.8983  -37.4256   -9.1990 N   0  0  0  0  0  0  0  0  0  0  0  0
   46.0563  -38.2405   -8.0113 C   0  0  0  0  0  0  0  0  0  0  0  0
   47.2444  -39.0839   -7.9932 C   0  0  0  0  0  0  0  0  0  0  0  0
   47.9848  -39.1744   -6.8078 C   0  0  0  0  0  0  0  0  0  0  0  0
   49.1173  -39.9558   -6.7431 C   0  0  0  0  0  0  0  0  0  0  0  0
   49.5601  -40.6738   -7.8385 C   0  0  0  0  0  0  0  0  0  0  0  0
   50.7562  -41.5065   -7.7754 C   0  0  0  0  0  0  0  0  0  0  0  0
   51.7633  -41.3710   -6.8030 N   0  0  0  0  0  0  0  0  0  0  0  0
   50.9006  -42.4364   -8.6763 N   0  0  0  0  0  0  0  0  0  0  0  0
   48.8293  -40.5814   -9.0014 C   0  0  0  0  0  0  0  0  0  0  0  0
   47.6714  -39.7899   -9.0888 C   0  0  0  0  0  0  0  0  0  0  0  0
   54.4460  -35.1935   -8.1336 C   0  0  0  0  0  0  0  0  0  0  0  0
   55.1331  -36.0952   -7.1747 C   0  0  0  0  0  0  0  0  0  0  0  0
   54.1947  -36.7511   -6.2205 C   0  0  0  0  0  0  0  0  0  0  0  0
   54.2359  -36.1294   -4.8377 C   0  0  0  0  0  0  0  0  0  0  0  0
   53.6518  -34.8036   -4.7470 C   0  0  0  0  0  0  0  0  0  0  0  0
   54.9002  -34.0310   -8.2815 O   0  0  0  0  0  0  0  0  0  0  0  0
   54.4761  -33.8197   -4.8852 O   0  0  0  0  0  0  0  0  0  0  0  0
   53.7766  -33.3698   -0.3870 H   0  0  0  0  0  0  0  0  0  0  0  0
   49.6588  -33.8782   -6.1323 H   0  0  0  0  0  0  0  0  0  0  0  0
   42.3078  -37.2588  -15.2954 H   0  0  0  0  0  0  0  0  0  0  0  0
   50.6082  -42.3175   -9.6611 H   0  0  0  0  0  0  0  0  0  0  0  0
  1  2  1  0
  1 58  1  0
  2  3  1  0
  2  5  1  1
  3  4  2  0
  3 12  1  0
  5  6  1  0
  6  7  1  0
  7  8  1  0
  8  9  1  0
  9 10  2  0
  9 11  1  0
 12 13  1  0
 13 14  1  0
 13 16  1  1
 14 15  2  0
 14 23  1  0
 16 17  1  0
 17 18  1  0
 18 19  1  0
 19 20  1  0
 20 21  1  0
 20 22  2  0
 23 24  1  0
 24 25  1  6
 24 27  1  0
 25 26  2  0
 25 32  1  0
 27 28  1  0
 28 29  1  0
 29 30  1  0
 30 31  1  0
 31 54  1  0
 32 33  1  0
 33 34  1  0
 33 36  1  6
 34 35  2  0
 34 43  1  0
 36 37  1  0
 37 38  1  0
 38 39  1  0
 39 40  1  0
 40 41  2  0
 40 42  1  0
 43 44  1  0
 44 45  1  0
 45 46  2  0
 45 53  1  0
 46 47  1  0
 47 48  2  0
 48 49  1  0
 48 52  1  0
 49 50  1  0
 49 51  2  0
 52 53  2  0
 54 55  1  0
 54 59  2  0
 55 56  1  0
 56 57  1  0
 57 58  1  0
 58 60  2  0
 10 61  1  0
 22 62  1  0
 41 63  1  0
 51 64  1  0
M  END
$$$$
