
     RDKit          3D

 64 65  0  0  0  0  0  0  0  0999 V2000
   49.8724  -34.5797   -6.0794 N   0  0  0  0  0  0  0  0  0  0  0  0
   49.0638  -35.7040   -6.4274 C   0  0  2  0  0  0  0  0  0  0  0  0
   47.7888  -35.1915   -7.0066 C   0  0  0  0  0  0  0  0  0  0  0  0
   47.4409  -34.0452   -6.5130 O   0  0  0  0  0  0  0  0  0  0  0  0
   48.8900  -36.6868   -5.3620 C   0  0  0  0  0  0  0  0  0  0  0  0
   49.7120  -36.6212   -4.1120 C   0  0  0  0  0  0  0  0  0  0  0  0
   50.8439  -35.6533   -4.0963 C   0  0  0  0  0  0  0  0  0  0  0  0
   51.0832  -34.9365   -2.8863 N   0  0  0  0  0  0  0  0  0  0  0  0
   52.1768  -34.1217   -2.5545 C   0  0  0  0  0  0  0  0  0  0  0  0
   53.0465  -33.8648   -3.4302 N   0  0  0  0  0  0  0  0  0  0  0  0
   52.3320  -33.6099   -1.1984 N   0  0  0  0  0  0  0  0  0  0  0  0
   46.9510  -35.7278   -7.9519 N   0  0  0  0  0  0  0  0  0  0  0  0
   46.4230  -37.0681   -8.1017 C   0  0  2  0  0  0  0  0  0  0  0  0
   46.2748  -37.4667   -9.5314 C   0  0  0  0  0  0  0  0  0  0  0  0
   45.0736  -37.8123   -9.8744 O   0  0  0  0  0  0  0  0  0  0  0  0
   45.0458  -37.0470   -7.4529 C   0  0  0  0  0  0  0  0  0  0  0  0
   45.0533  -36.7304   -6.0031 C   0  0  0  0  0  0  0  0  0  0  0  0
   43.9464  -37.4928   -5.2686 C   0  0  0  0  0  0  0  0  0  0  0  0
   44.5160  -38.4240   -4.3130 N   0  0  0  0  0  0  0  0  0  0  0  0
   43.8683  -38.5847   -3.0599 C   0  0  0  0  0  0  0  0  0  0  0  0
   44.4890  -39.4141   -2.0841 N   0  0  0  0  0  0  0  0  0  0  0  0
   42.7485  -38.0025   -2.7951 N   0  0  0  0  0  0  0  0  0  0  0  0
   47.2361  -37.5135  -10.5227 N   0  0  0  0  0  0  0  0  0  0  0  0
   48.4471  -38.2736  -10.6337 C   0  0  2  0  0  0  0  0  0  0  0  0
   48.4110  -39.1914  -11.8232 C   0  0  0  0  0  0  0  0  0  0  0  0
   49.1934  -38.9419  -12.7562 O   0  0  0  0  0  0  0  0  0  0  0  0
   48.9079  -38.9764   -9.4092 C   0  0  0  0  0  0  0  0  0  0  0  0
   50.3399  -39.4723   -9.6938 C   0  0  0  0  0  0  0  0  0  0  0  0
   51.1802  -39.3547   -8.4275 C   0  0  0  0  0  0  0  0  0  0  0  0
   52.4476  -38.5793   -8.6880 C   0  0  0  0  0  0  0  0  0  0  0  0
   52.2059  -37.2038   -9.0543 N   0  0  0  0  0  0  0  0  0  0  0  0
   47.5281  -40.2972  -11.8929 N   0  0  0  0  0  0  0  0  0  0  0  0
   46.1448  -40.2791  -12.2252 C   0  0  2  0  0  0  0  0  0  0  0  0
   45.3575  -39.1887  -11.6572 C   0  0  0  0  0  0  0  0  0  0  0  0
   45.1497  -39.1537  -10.4007 O   0  0  0  0  0  0  0  0  0  0  0  0
   45.4248  -41.6001  -12.0271 C   0  0  0  0  0  0  0  0  0  0  0  0
   44.9452  -42.2123  -13.2985 C   0  0  0  0  0  0  0  0  0  0  0  0
   44.3489  -43.5986  -13.1299 C   0  0  0  0  0  0  0  0  0  0  0  0
   45.1576  -44.6133  -13.7639 N   0  0  0  0  0  0  0  0  0  0  0  0
   46.2497  -45.1955  -13.0643 C   0  0  0  0  0  0  0  0  0  0  0  0
   47.1521  -45.7627  -13.7947 N   0  0  0  0  0  0  0  0  0  0  0  0
   46.3577  -45.1626  -11.6501 N   0  0  0  0  0  0  0  0  0  0  0  0
   44.7871  -38.1331  -12.4017 N   0  0  0  0  0  0  0  0  0  0  0  0
   45.2685  -37.6486  -13.6796 C   0  0  0  0  0  0  0  0  0  0  0  0
   46.0190  -36.4008  -13.6254 C   0  0  0  0  0  0  0  0  0  0  0  0
   46.1321  -35.6347  -14.7923 C   0  0  0  0  0  0  0  0  0  0  0  0
   46.8346  -34.4499  -14.7914 C   0  0  0  0  0  0  0  0  0  0  0  0
   47.4486  -33.9780  -13.6460 C   0  0  0  0  0  0  0  0  0  0  0  0
   48.1906  -32.7220  -13.6372 C   0  0  0  0  0  0  0  0  0  0  0  0
   48.3514  -31.9067  -12.5024 N   0  0  0  0  0  0  0  0  0  0  0  0
   48.7411  -32.3306  -14.7512 N   0  0  0  0  0  0  0  0  0  0  0  0
   47.3350  -34.7345  -12.5017 C   0  0  0  0  0  0  0  0  0  0  0  0
   46.6233  -35.9460  -12.4811 C   0  0  0  0  0  0  0  0  0  0  0  0
   52.9527  -36.1126   -8.5852 C   0  0  0  0  0  0  0  0  0  0  0  0
   53.6075  -36.1237   -7.2527 C   0  0  0  0  0  0  0  0  0  0  0  0
   52.6871  -36.5410   -6.1572 C   0  0  0  0  0  0  0  0  0  0  0  0
   52.2089  -35.3723   -5.3169 C   0  0  0  0  0  0  0  0  0  0  0  0
   51.2711  -34.4859   -5.9817 C   0  0  0  0  0  0  0  0  0  0  0  0
   53.0825  -35.0867   -9.2994 O   0  0  0  0  0  0  0  0  0  0  0  0
   51.7920  -33.4613   -6.5695 O   0  0  0  0  0  0  0  0  0  0  0  0
   54.0332  -33.9719   -3.4316 H   0  0  0  0  0  0  0  0  0  0  0  0
   42.2812  -38.1524   -1.8786 H   0  0  0  0  0  0  0  0  0  0  0  0
   47.8813  -46.3266  -13.3052 H   0  0  0  0  0  0  0  0  0  0  0  0
   49.3948  -31.5313  -14.8066 H   0  0  0  0  0  0  0  0  0  0  0  0
  1  2  1  0
  1 58  1  0
  2  3  1  0
  2  5  1  1
  3  4  2  0
  3 12  1  0
  5  6  1  0
  6  7  1  0
  7  8  1  0
  8  9  1  0
  9 10  2  0
  9 11  1  0
 12 13  1  0
 13 14  1  0
 13 16  1  6
 14 15  2  0
 14 23  1  0
 16 17  1  0
 17 18  1  0
 18 19  1  0
 19 20  1  0
 20 21  1  0
 20 22  2  0
 23 24  1  0
 24 25  1  6
 24 27  1  0
 25 26  2  0
 25 32  1  0
 27 28  1  0
 28 29  1  0
 29 30  1  0
 30 31  1  0
 31 54  1  0
 32 33  1  0
 33 34  1  0
 33 36  1  1
 34 35  2  0
 34 43  1  0
 36 37  1  0
 37 38  1  0
 38 39  1  0
 39 40  1  0
 40 41  2  0
 40 42  1  0
 43 44  1  0
 44 45  1  0
 45 46  2  0
 45 53  1  0
 46 47  1  0
 47 48  2  0
 48 49  1  0
 48 52  1  0
 49 50  1  0
 49 51  2  0
 52 53  2  0
 54 55  1  0
 54 59  2  0
 55 56  1  0
 56 57  1  0
 57 58  1  0
 58 60  2  0
 10 61  1  0
 22 62  1  0
 41 63  1  0
 51 64  1  0
M  END
$$$$
