
     RDKit          3D

 64 65  0  0  0  0  0  0  0  0999 V2000
   53.1789  -33.9204   -5.0701 N   0  0  0  0  0  0  0  0  0  0  0  0
   51.8565  -34.3678   -5.3704 C   0  0  2  0  0  0  0  0  0  0  0  0
   50.9206  -33.2330   -5.1255 C   0  0  0  0  0  0  0  0  0  0  0  0
   51.3310  -32.4405   -4.1862 O   0  0  0  0  0  0  0  0  0  0  0  0
   51.4709  -35.6179   -4.7225 C   0  0  0  0  0  0  0  0  0  0  0  0
   51.9517  -35.9512   -3.3440 C   0  0  0  0  0  0  0  0  0  0  0  0
   52.1220  -34.8170   -2.3939 C   0  0  0  0  0  0  0  0  0  0  0  0
   52.5422  -35.1253   -1.0658 N   0  0  0  0  0  0  0  0  0  0  0  0
   52.7689  -34.2472    0.0054 C   0  0  0  0  0  0  0  0  0  0  0  0
   52.5874  -34.6500    1.1860 N   0  0  0  0  0  0  0  0  0  0  0  0
   53.1693  -32.8676   -0.2425 N   0  0  0  0  0  0  0  0  0  0  0  0
   49.7282  -32.9062   -5.7211 N   0  0  0  0  0  0  0  0  0  0  0  0
   48.5766  -33.7207   -6.0497 C   0  0  2  0  0  0  0  0  0  0  0  0
   47.9090  -33.2833   -7.3097 C   0  0  0  0  0  0  0  0  0  0  0  0
   46.6566  -32.9757   -7.1792 O   0  0  0  0  0  0  0  0  0  0  0  0
   47.6022  -33.5483   -4.8927 C   0  0  0  0  0  0  0  0  0  0  0  0
   48.1395  -32.7757   -3.7453 C   0  0  0  0  0  0  0  0  0  0  0  0
   49.6629  -32.6455   -3.8358 C   0  0  0  0  0  0  0  0  0  0  0  0
   50.0843  -31.3101   -3.4565 N   0  0  0  0  0  0  0  0  0  0  0  0
   50.1528  -30.9917   -2.0747 C   0  0  0  0  0  0  0  0  0  0  0  0
   48.9600  -30.5716   -1.4220 N   0  0  0  0  0  0  0  0  0  0  0  0
   51.2563  -31.0758   -1.4128 N   0  0  0  0  0  0  0  0  0  0  0  0
   48.4437  -33.1639   -8.5781 N   0  0  0  0  0  0  0  0  0  0  0  0
   49.0357  -34.1343   -9.4526 C   0  0  2  0  0  0  0  0  0  0  0  0
   48.2557  -34.2686  -10.7301 C   0  0  0  0  0  0  0  0  0  0  0  0
   48.8695  -34.0717  -11.7929 O   0  0  0  0  0  0  0  0  0  0  0  0
   49.3556  -35.4581   -8.8604 C   0  0  0  0  0  0  0  0  0  0  0  0
   50.2226  -36.2082   -9.8916 C   0  0  0  0  0  0  0  0  0  0  0  0
   51.2822  -37.0284   -9.1650 C   0  0  0  0  0  0  0  0  0  0  0  0
   52.6620  -36.7181   -9.6895 C   0  0  0  0  0  0  0  0  0  0  0  0
   53.0699  -35.3555   -9.4416 N   0  0  0  0  0  0  0  0  0  0  0  0
   46.8793  -34.6041  -10.7389 N   0  0  0  0  0  0  0  0  0  0  0  0
   46.3023  -35.8912  -10.5521 C   0  0  2  0  0  0  0  0  0  0  0  0
   44.9689  -36.0896  -11.1126 C   0  0  0  0  0  0  0  0  0  0  0  0
   43.9614  -35.5664  -10.5344 O   0  0  0  0  0  0  0  0  0  0  0  0
   46.3515  -36.4106   -9.1272 C   0  0  0  0  0  0  0  0  0  0  0  0
   47.1288  -37.6738   -8.9813 C   0  0  0  0  0  0  0  0  0  0  0  0
   47.2216  -38.1802   -7.5528 C   0  0  0  0  0  0  0  0  0  0  0  0
   47.6874  -39.5461   -7.4949 N   0  0  0  0  0  0  0  0  0  0  0  0
   46.8451  -40.6060   -7.9286 C   0  0  0  0  0  0  0  0  0  0  0  0
   45.7458  -40.7620   -7.2679 N   0  0  0  0  0  0  0  0  0  0  0  0
   47.1766  -41.4494   -9.0202 N   0  0  0  0  0  0  0  0  0  0  0  0
   44.6870  -36.8344  -12.2786 N   0  0  0  0  0  0  0  0  0  0  0  0
   45.5522  -36.9461  -13.4356 C   0  0  0  0  0  0  0  0  0  0  0  0
   46.9124  -37.3842  -13.1511 C   0  0  0  0  0  0  0  0  0  0  0  0
   47.1196  -38.7083  -12.7448 C   0  0  0  0  0  0  0  0  0  0  0  0
   48.3868  -39.1675  -12.4609 C   0  0  0  0  0  0  0  0  0  0  0  0
   49.4918  -38.3432  -12.5667 C   0  0  0  0  0  0  0  0  0  0  0  0
   50.8369  -38.8244  -12.2717 C   0  0  0  0  0  0  0  0  0  0  0  0
   51.1164  -39.9643  -11.4966 N   0  0  0  0  0  0  0  0  0  0  0  0
   51.8442  -38.1568  -12.7584 N   0  0  0  0  0  0  0  0  0  0  0  0
   49.2831  -37.0425  -12.9662 C   0  0  0  0  0  0  0  0  0  0  0  0
   47.9987  -36.5539  -13.2601 C   0  0  0  0  0  0  0  0  0  0  0  0
   54.3535  -34.9730   -9.0236 C   0  0  0  0  0  0  0  0  0  0  0  0
   55.2101  -35.8645   -8.2016 C   0  0  0  0  0  0  0  0  0  0  0  0
   54.4994  -36.4200   -7.0151 C   0  0  0  0  0  0  0  0  0  0  0  0
   54.8964  -35.7357   -5.7211 C   0  0  0  0  0  0  0  0  0  0  0  0
   54.4085  -34.3764   -5.5749 C   0  0  0  0  0  0  0  0  0  0  0  0
   54.8088  -33.8463   -9.3442 O   0  0  0  0  0  0  0  0  0  0  0  0
   55.2175  -33.4481   -5.9628 O   0  0  0  0  0  0  0  0  0  0  0  0
   53.2192  -34.9913    1.8713 H   0  0  0  0  0  0  0  0  0  0  0  0
   51.3218  -30.6937   -0.4481 H   0  0  0  0  0  0  0  0  0  0  0  0
   45.8159  -40.8324   -6.2289 H   0  0  0  0  0  0  0  0  0  0  0  0
   51.7332  -37.2772  -13.2905 H   0  0  0  0  0  0  0  0  0  0  0  0
  1  2  1  0
  1 58  1  0
  2  3  1  0
  2  5  1  1
  3  4  2  0
  3 12  1  0
  5  6  1  0
  6  7  1  0
  7  8  1  0
  8  9  1  0
  9 10  2  0
  9 11  1  0
 12 13  1  0
 13 14  1  0
 13 16  1  1
 14 15  2  0
 14 23  1  0
 16 17  1  0
 17 18  1  0
 18 19  1  0
 19 20  1  0
 20 21  1  0
 20 22  2  0
 23 24  1  0
 24 25  1  6
 24 27  1  0
 25 26  2  0
 25 32  1  0
 27 28  1  0
 28 29  1  0
 29 30  1  0
 30 31  1  0
 31 54  1  0
 32 33  1  0
 33 34  1  0
 33 36  1  1
 34 35  2  0
 34 43  1  0
 36 37  1  0
 37 38  1  0
 38 39  1  0
 39 40  1  0
 40 41  2  0
 40 42  1  0
 43 44  1  0
 44 45  1  0
 45 46  2  0
 45 53  1  0
 46 47  1  0
 47 48  2  0
 48 49  1  0
 48 52  1  0
 49 50  1  0
 49 51  2  0
 52 53  2  0
 54 55  1  0
 54 59  2  0
 55 56  1  0
 56 57  1  0
 57 58  1  0
 58 60  2  0
 10 61  1  0
 22 62  1  0
 41 63  1  0
 51 64  1  0
M  END
$$$$
