
     RDKit          3D

 64 65  0  0  0  0  0  0  0  0999 V2000
   52.4539  -34.7698   -7.2886 N   0  0  0  0  0  0  0  0  0  0  0  0
   51.2004  -34.8577   -6.6104 C   0  0  2  0  0  0  0  0  0  0  0  0
   50.3442  -33.7303   -7.0789 C   0  0  0  0  0  0  0  0  0  0  0  0
   51.0328  -32.6836   -7.4092 O   0  0  0  0  0  0  0  0  0  0  0  0
   51.2965  -34.9790   -5.1588 C   0  0  0  0  0  0  0  0  0  0  0  0
   52.5535  -34.6042   -4.4362 C   0  0  0  0  0  0  0  0  0  0  0  0
   53.4183  -33.5724   -5.0729 C   0  0  0  0  0  0  0  0  0  0  0  0
   54.5795  -33.1516   -4.3588 N   0  0  0  0  0  0  0  0  0  0  0  0
   54.9251  -31.8586   -3.9361 C   0  0  0  0  0  0  0  0  0  0  0  0
   54.1274  -30.9048   -4.1435 N   0  0  0  0  0  0  0  0  0  0  0  0
   56.2131  -31.6089   -3.3007 N   0  0  0  0  0  0  0  0  0  0  0  0
   48.9820  -33.6303   -7.2107 N   0  0  0  0  0  0  0  0  0  0  0  0
   47.9110  -34.0047   -6.3105 C   0  0  2  0  0  0  0  0  0  0  0  0
   46.7045  -34.5006   -7.0337 C   0  0  0  0  0  0  0  0  0  0  0  0
   45.6153  -33.8452   -6.7807 O   0  0  0  0  0  0  0  0  0  0  0  0
   47.5423  -32.7364   -5.5533 C   0  0  0  0  0  0  0  0  0  0  0  0
   48.6502  -32.1495   -4.7592 C   0  0  0  0  0  0  0  0  0  0  0  0
   49.4253  -33.2375   -4.0099 C   0  0  0  0  0  0  0  0  0  0  0  0
   49.1294  -33.1888   -2.5904 N   0  0  0  0  0  0  0  0  0  0  0  0
   49.8696  -34.0296   -1.7182 C   0  0  0  0  0  0  0  0  0  0  0  0
   51.2727  -33.8175   -1.6107 N   0  0  0  0  0  0  0  0  0  0  0  0
   49.3031  -34.9643   -1.0338 N   0  0  0  0  0  0  0  0  0  0  0  0
   46.5986  -35.5507   -7.9254 N   0  0  0  0  0  0  0  0  0  0  0  0
   46.8493  -36.9543   -7.7712 C   0  0  2  0  0  0  0  0  0  0  0  0
   45.6035  -37.7622   -8.0035 C   0  0  0  0  0  0  0  0  0  0  0  0
   44.8373  -37.9141   -7.0366 O   0  0  0  0  0  0  0  0  0  0  0  0
   47.5551  -37.3735   -6.5336 C   0  0  0  0  0  0  0  0  0  0  0  0
   47.9535  -38.8505   -6.7280 C   0  0  0  0  0  0  0  0  0  0  0  0
   49.3153  -39.0983   -6.0897 C   0  0  0  0  0  0  0  0  0  0  0  0
   50.2681  -39.7305   -7.0735 C   0  0  0  0  0  0  0  0  0  0  0  0
   50.5781  -38.8738   -8.1935 N   0  0  0  0  0  0  0  0  0  0  0  0
   45.3020  -38.3329   -9.2646 N   0  0  0  0  0  0  0  0  0  0  0  0
   45.5548  -37.7746  -10.5486 C   0  0  2  0  0  0  0  0  0  0  0  0
   45.2834  -38.6381  -11.6941 C   0  0  0  0  0  0  0  0  0  0  0  0
   46.2265  -39.3362  -12.1906 O   0  0  0  0  0  0  0  0  0  0  0  0
   46.9144  -37.1181  -10.7012 C   0  0  0  0  0  0  0  0  0  0  0  0
   47.0850  -36.3978  -11.9947 C   0  0  0  0  0  0  0  0  0  0  0  0
   47.0041  -34.8861  -11.8750 C   0  0  0  0  0  0  0  0  0  0  0  0
   48.3032  -34.2664  -11.9924 N   0  0  0  0  0  0  0  0  0  0  0  0
   48.4139  -32.8516  -12.0761 C   0  0  0  0  0  0  0  0  0  0  0  0
   49.6091  -32.3854  -12.2298 N   0  0  0  0  0  0  0  0  0  0  0  0
   47.2895  -31.9899  -11.9991 N   0  0  0  0  0  0  0  0  0  0  0  0
   44.0257  -38.7738  -12.3216 N   0  0  0  0  0  0  0  0  0  0  0  0
   42.9129  -39.5524  -11.8166 C   0  0  0  0  0  0  0  0  0  0  0  0
   43.1953  -40.9648  -11.5967 C   0  0  0  0  0  0  0  0  0  0  0  0
   44.1616  -41.5882  -12.3961 C   0  0  0  0  0  0  0  0  0  0  0  0
   44.4601  -42.9223  -12.2281 C   0  0  0  0  0  0  0  0  0  0  0  0
   43.8211  -43.6881  -11.2706 C   0  0  0  0  0  0  0  0  0  0  0  0
   44.1356  -45.1004  -11.0847 C   0  0  0  0  0  0  0  0  0  0  0  0
   43.7251  -45.8625   -9.9761 N   0  0  0  0  0  0  0  0  0  0  0  0
   44.8407  -45.6948  -12.0050 N   0  0  0  0  0  0  0  0  0  0  0  0
   42.8720  -43.0711  -10.4875 C   0  0  0  0  0  0  0  0  0  0  0  0
   42.5521  -41.7115  -10.6427 C   0  0  0  0  0  0  0  0  0  0  0  0
   51.8574  -38.7229   -8.7495 C   0  0  0  0  0  0  0  0  0  0  0  0
   53.0903  -38.8790   -7.9371 C   0  0  0  0  0  0  0  0  0  0  0  0
   53.0555  -38.0914   -6.6723 C   0  0  0  0  0  0  0  0  0  0  0  0
   53.9034  -36.8356   -6.7408 C   0  0  0  0  0  0  0  0  0  0  0  0
   53.3737  -35.7874   -7.5938 C   0  0  0  0  0  0  0  0  0  0  0  0
   51.9838  -38.4472   -9.9692 O   0  0  0  0  0  0  0  0  0  0  0  0
   53.8075  -35.7846   -8.8097 O   0  0  0  0  0  0  0  0  0  0  0  0
   53.6239  -30.3183   -3.5209 H   0  0  0  0  0  0  0  0  0  0  0  0
   49.8641  -35.5622   -0.3946 H   0  0  0  0  0  0  0  0  0  0  0  0
   49.7038  -31.3686  -12.4455 H   0  0  0  0  0  0  0  0  0  0  0  0
   44.8205  -46.7173  -12.1580 H   0  0  0  0  0  0  0  0  0  0  0  0
  1  2  1  0
  1 58  1  0
  2  3  1  0
  2  5  1  1
  3  4  2  0
  3 12  1  0
  5  6  1  0
  6  7  1  0
  7  8  1  0
  8  9  1  0
  9 10  2  0
  9 11  1  0
 12 13  1  0
 13 14  1  0
 13 16  1  6
 14 15  2  0
 14 23  1  0
 16 17  1  0
 17 18  1  0
 18 19  1  0
 19 20  1  0
 20 21  1  0
 20 22  2  0
 23 24  1  0
 24 25  1  1
 24 27  1  0
 25 26  2  0
 25 32  1  0
 27 28  1  0
 28 29  1  0
 29 30  1  0
 30 31  1  0
 31 54  1  0
 32 33  1  0
 33 34  1  0
 33 36  1  1
 34 35  2  0
 34 43  1  0
 36 37  1  0
 37 38  1  0
 38 39  1  0
 39 40  1  0
 40 41  2  0
 40 42  1  0
 43 44  1  0
 44 45  1  0
 45 46  2  0
 45 53  1  0
 46 47  1  0
 47 48  2  0
 48 49  1  0
 48 52  1  0
 49 50  1  0
 49 51  2  0
 52 53  2  0
 54 55  1  0
 54 59  2  0
 55 56  1  0
 56 57  1  0
 57 58  1  0
 58 60  2  0
 10 61  1  0
 22 62  1  0
 41 63  1  0
 51 64  1  0
M  END
$$$$
