
     RDKit          3D

 64 65  0  0  0  0  0  0  0  0999 V2000
   56.4539  -35.3249   -6.5172 N   0  0  0  0  0  0  0  0  0  0  0  0
   55.1344  -35.0778   -7.0040 C   0  0  2  0  0  0  0  0  0  0  0  0
   54.6821  -36.2919   -7.7424 C   0  0  0  0  0  0  0  0  0  0  0  0
   55.6614  -36.9319   -8.2992 O   0  0  0  0  0  0  0  0  0  0  0  0
   54.9782  -33.8291   -7.7438 C   0  0  0  0  0  0  0  0  0  0  0  0
   56.0934  -33.2863   -8.5829 C   0  0  0  0  0  0  0  0  0  0  0  0
   56.8872  -34.2692   -9.3716 C   0  0  0  0  0  0  0  0  0  0  0  0
   58.1926  -34.5960   -8.8979 N   0  0  0  0  0  0  0  0  0  0  0  0
   59.0530  -35.6137   -9.3381 C   0  0  0  0  0  0  0  0  0  0  0  0
   58.6208  -36.4887  -10.1360 N   0  0  0  0  0  0  0  0  0  0  0  0
   60.4232  -35.6868   -8.8459 N   0  0  0  0  0  0  0  0  0  0  0  0
   53.4287  -36.8216   -7.9197 N   0  0  0  0  0  0  0  0  0  0  0  0
   52.1754  -36.1935   -8.2835 C   0  0  2  0  0  0  0  0  0  0  0  0
   51.0029  -36.8312   -7.6176 C   0  0  0  0  0  0  0  0  0  0  0  0
   50.0976  -37.2791   -8.4299 O   0  0  0  0  0  0  0  0  0  0  0  0
   52.0423  -36.3737   -9.7894 C   0  0  0  0  0  0  0  0  0  0  0  0
   53.1639  -37.1109  -10.4226 C   0  0  0  0  0  0  0  0  0  0  0  0
   54.0814  -37.7302   -9.3640 C   0  0  0  0  0  0  0  0  0  0  0  0
   54.5763  -36.7105   -8.4584 N   0  0  0  0  0  0  0  0  0  0  0  0
   55.6678  -37.0343   -7.6103 C   0  0  0  0  0  0  0  0  0  0  0  0
   55.5322  -36.7850   -6.2158 N   0  0  0  0  0  0  0  0  0  0  0  0
   56.7595  -37.5416   -8.0728 N   0  0  0  0  0  0  0  0  0  0  0  0
   50.7605  -37.0049   -6.2686 N   0  0  0  0  0  0  0  0  0  0  0  0
   50.6099  -36.0573   -5.2026 C   0  0  2  0  0  0  0  0  0  0  0  0
   49.2454  -36.1462   -4.5792 C   0  0  0  0  0  0  0  0  0  0  0  0
   49.1865  -36.1266   -3.3378 O   0  0  0  0  0  0  0  0  0  0  0  0
   50.9892  -34.6528   -5.5006 C   0  0  0  0  0  0  0  0  0  0  0  0
   51.0124  -33.9034   -4.1531 C   0  0  0  0  0  0  0  0  0  0  0  0
   52.1513  -32.8904   -4.1538 C   0  0  0  0  0  0  0  0  0  0  0  0
   53.0414  -33.0748   -2.9500 C   0  0  0  0  0  0  0  0  0  0  0  0
   53.7277  -34.3450   -2.9412 N   0  0  0  0  0  0  0  0  0  0  0  0
   48.0675  -36.2489   -5.3597 N   0  0  0  0  0  0  0  0  0  0  0  0
   47.8482  -37.0887   -6.4871 C   0  0  2  0  0  0  0  0  0  0  0  0
   47.9367  -36.4494   -7.7966 C   0  0  0  0  0  0  0  0  0  0  0  0
   47.3631  -35.3278   -7.9869 O   0  0  0  0  0  0  0  0  0  0  0  0
   46.5989  -37.9465   -6.4090 C   0  0  0  0  0  0  0  0  0  0  0  0
   45.6217  -37.4817   -5.3843 C   0  0  0  0  0  0  0  0  0  0  0  0
   44.3624  -38.3265   -5.3039 C   0  0  0  0  0  0  0  0  0  0  0  0
   43.4621  -37.8547   -4.2779 N   0  0  0  0  0  0  0  0  0  0  0  0
   43.3725  -38.5414   -3.0364 C   0  0  0  0  0  0  0  0  0  0  0  0
   43.9187  -39.7117   -2.9961 N   0  0  0  0  0  0  0  0  0  0  0  0
   42.7272  -37.9883   -1.9005 N   0  0  0  0  0  0  0  0  0  0  0  0
   48.6255  -36.9811   -8.9087 N   0  0  0  0  0  0  0  0  0  0  0  0
   48.0133  -37.6686  -10.0276 C   0  0  0  0  0  0  0  0  0  0  0  0
   47.2208  -36.8256  -10.9133 C   0  0  0  0  0  0  0  0  0  0  0  0
   47.2928  -35.4356  -10.7585 C   0  0  0  0  0  0  0  0  0  0  0  0
   46.5593  -34.5980  -11.5694 C   0  0  0  0  0  0  0  0  0  0  0  0
   45.7317  -35.0964  -12.5585 C   0  0  0  0  0  0  0  0  0  0  0  0
   44.9555  -34.2147  -13.4234 C   0  0  0  0  0  0  0  0  0  0  0  0
   44.8974  -32.8167  -13.2795 N   0  0  0  0  0  0  0  0  0  0  0  0
   44.2734  -34.7561  -14.3924 N   0  0  0  0  0  0  0  0  0  0  0  0
   45.6640  -36.4632  -12.7067 C   0  0  0  0  0  0  0  0  0  0  0  0
   46.4036  -37.3354  -11.8900 C   0  0  0  0  0  0  0  0  0  0  0  0
   55.0700  -34.5215   -2.5731 C   0  0  0  0  0  0  0  0  0  0  0  0
   56.0840  -33.4542   -2.7655 C   0  0  0  0  0  0  0  0  0  0  0  0
   56.0682  -32.8798   -4.1408 C   0  0  0  0  0  0  0  0  0  0  0  0
   57.2151  -33.3804   -4.9978 C   0  0  0  0  0  0  0  0  0  0  0  0
   57.1108  -34.7695   -5.4060 C   0  0  0  0  0  0  0  0  0  0  0  0
   55.4443  -35.6079   -2.0641 O   0  0  0  0  0  0  0  0  0  0  0  0
   57.7064  -35.6223   -4.6414 O   0  0  0  0  0  0  0  0  0  0  0  0
   57.7883  -37.0293  -10.1349 H   0  0  0  0  0  0  0  0  0  0  0  0
   57.6779  -37.1117   -7.8438 H   0  0  0  0  0  0  0  0  0  0  0  0
   44.4709  -40.0127   -3.8291 H   0  0  0  0  0  0  0  0  0  0  0  0
   44.5883  -35.5998  -14.9005 H   0  0  0  0  0  0  0  0  0  0  0  0
  1  2  1  0
  1 58  1  0
  2  3  1  0
  2  5  1  6
  3  4  2  0
  3 12  1  0
  5  6  1  0
  6  7  1  0
  7  8  1  0
  8  9  1  0
  9 10  2  0
  9 11  1  0
 12 13  1  0
 13 14  1  0
 13 16  1  6
 14 15  2  0
 14 23  1  0
 16 17  1  0
 17 18  1  0
 18 19  1  0
 19 20  1  0
 20 21  1  0
 20 22  2  0
 23 24  1  0
 24 25  1  6
 24 27  1  0
 25 26  2  0
 25 32  1  0
 27 28  1  0
 28 29  1  0
 29 30  1  0
 30 31  1  0
 31 54  1  0
 32 33  1  0
 33 34  1  0
 33 36  1  1
 34 35  2  0
 34 43  1  0
 36 37  1  0
 37 38  1  0
 38 39  1  0
 39 40  1  0
 40 41  2  0
 40 42  1  0
 43 44  1  0
 44 45  1  0
 45 46  2  0
 45 53  1  0
 46 47  1  0
 47 48  2  0
 48 49  1  0
 48 52  1  0
 49 50  1  0
 49 51  2  0
 52 53  2  0
 54 55  1  0
 54 59  2  0
 55 56  1  0
 56 57  1  0
 57 58  1  0
 58 60  2  0
 10 61  1  0
 22 62  1  0
 41 63  1  0
 51 64  1  0
M  END
$$$$
