
     RDKit          3D

 64 65  0  0  0  0  0  0  0  0999 V2000
   46.7285  -35.2193   -4.5139 N   0  0  0  0  0  0  0  0  0  0  0  0
   46.3320  -36.4415   -5.1366 C   0  0  2  0  0  0  0  0  0  0  0  0
   44.9584  -36.2531   -5.6857 C   0  0  0  0  0  0  0  0  0  0  0  0
   44.2552  -35.4120   -4.9953 O   0  0  0  0  0  0  0  0  0  0  0  0
   46.4914  -37.6318   -4.3066 C   0  0  0  0  0  0  0  0  0  0  0  0
   47.7721  -37.8959   -3.5767 C   0  0  0  0  0  0  0  0  0  0  0  0
   49.0290  -37.4280   -4.2241 C   0  0  0  0  0  0  0  0  0  0  0  0
   50.2529  -37.6437   -3.5235 N   0  0  0  0  0  0  0  0  0  0  0  0
   51.5530  -37.2729   -3.9002 C   0  0  0  0  0  0  0  0  0  0  0  0
   52.4368  -38.1618   -4.0343 N   0  0  0  0  0  0  0  0  0  0  0  0
   51.8938  -35.8689   -4.0941 N   0  0  0  0  0  0  0  0  0  0  0  0
   44.3406  -36.8144   -6.7749 N   0  0  0  0  0  0  0  0  0  0  0  0
   44.2804  -38.1885   -7.2287 C   0  0  2  0  0  0  0  0  0  0  0  0
   44.2682  -38.2985   -8.7161 C   0  0  0  0  0  0  0  0  0  0  0  0
   43.2458  -38.9289   -9.2032 O   0  0  0  0  0  0  0  0  0  0  0  0
   42.9734  -38.7486   -6.6846 C   0  0  0  0  0  0  0  0  0  0  0  0
   42.4343  -38.0215   -5.5086 C   0  0  0  0  0  0  0  0  0  0  0  0
   43.5667  -37.4631   -4.6416 C   0  0  0  0  0  0  0  0  0  0  0  0
   44.8575  -37.7709   -5.2280 N   0  0  0  0  0  0  0  0  0  0  0  0
   45.7749  -38.5452   -4.4703 C   0  0  0  0  0  0  0  0  0  0  0  0
   45.7008  -38.4759   -3.0508 N   0  0  0  0  0  0  0  0  0  0  0  0
   46.6574  -39.2969   -5.0353 N   0  0  0  0  0  0  0  0  0  0  0  0
   45.1901  -37.8221   -9.6284 N   0  0  0  0  0  0  0  0  0  0  0  0
   46.5831  -38.1121   -9.8080 C   0  0  2  0  0  0  0  0  0  0  0  0
   46.8473  -38.7167  -11.1582 C   0  0  0  0  0  0  0  0  0  0  0  0
   46.6401  -39.9358  -11.2844 O   0  0  0  0  0  0  0  0  0  0  0  0
   47.2507  -38.8748   -8.7226 C   0  0  0  0  0  0  0  0  0  0  0  0
   48.7657  -38.8131   -9.0032 C   0  0  0  0  0  0  0  0  0  0  0  0
   49.5235  -38.7060   -7.6850 C   0  0  0  0  0  0  0  0  0  0  0  0
   50.4665  -37.5288   -7.6960 C   0  0  0  0  0  0  0  0  0  0  0  0
   49.7872  -36.2585   -7.7919 N   0  0  0  0  0  0  0  0  0  0  0  0
   47.3132  -37.9433  -12.2501 N   0  0  0  0  0  0  0  0  0  0  0  0
   48.5708  -37.2893  -12.3715 C   0  0  2  0  0  0  0  0  0  0  0  0
   48.9911  -36.4791  -11.2321 C   0  0  0  0  0  0  0  0  0  0  0  0
   48.5002  -36.7143  -10.0803 O   0  0  0  0  0  0  0  0  0  0  0  0
   48.7637  -36.5143  -13.6618 C   0  0  0  0  0  0  0  0  0  0  0  0
   48.1428  -37.1697  -14.8476 C   0  0  0  0  0  0  0  0  0  0  0  0
   47.4112  -36.2112  -15.7705 C   0  0  0  0  0  0  0  0  0  0  0  0
   46.8829  -36.8826  -16.9349 N   0  0  0  0  0  0  0  0  0  0  0  0
   45.8017  -36.3104  -17.6591 C   0  0  0  0  0  0  0  0  0  0  0  0
   45.3442  -35.1914  -17.2032 N   0  0  0  0  0  0  0  0  0  0  0  0
   45.2483  -36.9180  -18.8155 N   0  0  0  0  0  0  0  0  0  0  0  0
   49.9258  -35.4225  -11.2950 N   0  0  0  0  0  0  0  0  0  0  0  0
   51.2894  -35.4752  -10.8077 C   0  0  0  0  0  0  0  0  0  0  0  0
   51.4747  -35.0183   -9.4366 C   0  0  0  0  0  0  0  0  0  0  0  0
   51.6129  -33.6449   -9.2000 C   0  0  0  0  0  0  0  0  0  0  0  0
   51.7940  -33.1655   -7.9214 C   0  0  0  0  0  0  0  0  0  0  0  0
   51.8449  -34.0175   -6.8337 C   0  0  0  0  0  0  0  0  0  0  0  0
   52.0321  -33.5159   -5.4766 C   0  0  0  0  0  0  0  0  0  0  0  0
   53.2669  -33.0903   -4.9545 N   0  0  0  0  0  0  0  0  0  0  0  0
   50.9889  -33.4567   -4.6986 N   0  0  0  0  0  0  0  0  0  0  0  0
   51.7088  -35.3664   -7.0712 C   0  0  0  0  0  0  0  0  0  0  0  0
   51.5237  -35.8763   -8.3676 C   0  0  0  0  0  0  0  0  0  0  0  0
   50.1365  -35.1125   -7.0617 C   0  0  0  0  0  0  0  0  0  0  0  0
   50.7611  -35.1976   -5.7176 C   0  0  0  0  0  0  0  0  0  0  0  0
   50.0300  -36.1115   -4.7946 C   0  0  0  0  0  0  0  0  0  0  0  0
   49.1971  -35.3654   -3.7699 C   0  0  0  0  0  0  0  0  0  0  0  0
   48.0196  -34.7057   -4.3040 C   0  0  0  0  0  0  0  0  0  0  0  0
   49.9219  -33.9714   -7.5429 O   0  0  0  0  0  0  0  0  0  0  0  0
   48.1752  -33.4676   -4.6352 O   0  0  0  0  0  0  0  0  0  0  0  0
   52.4078  -39.0643   -4.4464 H   0  0  0  0  0  0  0  0  0  0  0  0
   46.3647  -40.1236   -5.5937 H   0  0  0  0  0  0  0  0  0  0  0  0
   45.8317  -34.7728  -16.3808 H   0  0  0  0  0  0  0  0  0  0  0  0
   50.0377  -33.7164   -5.0103 H   0  0  0  0  0  0  0  0  0  0  0  0
  1  2  1  0
  1 58  1  0
  2  3  1  0
  2  5  1  1
  3  4  2  0
  3 12  1  0
  5  6  1  0
  6  7  1  0
  7  8  1  0
  8  9  1  0
  9 10  2  0
  9 11  1  0
 12 13  1  0
 13 14  1  0
 13 16  1  1
 14 15  2  0
 14 23  1  0
 16 17  1  0
 17 18  1  0
 18 19  1  0
 19 20  1  0
 20 21  1  0
 20 22  2  0
 23 24  1  0
 24 25  1  6
 24 27  1  0
 25 26  2  0
 25 32  1  0
 27 28  1  0
 28 29  1  0
 29 30  1  0
 30 31  1  0
 31 54  1  0
 32 33  1  0
 33 34  1  0
 33 36  1  6
 34 35  2  0
 34 43  1  0
 36 37  1  0
 37 38  1  0
 38 39  1  0
 39 40  1  0
 40 41  2  0
 40 42  1  0
 43 44  1  0
 44 45  1  0
 45 46  2  0
 45 53  1  0
 46 47  1  0
 47 48  2  0
 48 49  1  0
 48 52  1  0
 49 50  1  0
 49 51  2  0
 52 53  2  0
 54 55  1  0
 54 59  2  0
 55 56  1  0
 56 57  1  0
 57 58  1  0
 58 60  2  0
 10 61  1  0
 22 62  1  0
 41 63  1  0
 51 64  1  0
M  END
$$$$
