
     RDKit          3D

 64 65  0  0  0  0  0  0  0  0999 V2000
   55.7455  -35.9524   -8.1723 N   0  0  0  0  0  0  0  0  0  0  0  0
   54.4521  -36.3286   -7.6985 C   0  0  2  0  0  0  0  0  0  0  0  0
   53.8905  -35.1787   -6.9330 C   0  0  0  0  0  0  0  0  0  0  0  0
   54.8068  -34.4675   -6.3557 O   0  0  0  0  0  0  0  0  0  0  0  0
   54.4063  -37.6043   -6.9902 C   0  0  0  0  0  0  0  0  0  0  0  0
   55.3141  -37.8741   -5.8302 C   0  0  0  0  0  0  0  0  0  0  0  0
   55.7925  -36.6948   -5.0565 C   0  0  0  0  0  0  0  0  0  0  0  0
   56.1679  -35.5309   -5.7911 N   0  0  0  0  0  0  0  0  0  0  0  0
   57.4521  -35.1183   -6.1790 C   0  0  0  0  0  0  0  0  0  0  0  0
   58.3441  -35.9839   -6.3893 N   0  0  0  0  0  0  0  0  0  0  0  0
   57.7680  -33.7001   -6.2972 N   0  0  0  0  0  0  0  0  0  0  0  0
   52.5941  -34.7680   -6.7493 N   0  0  0  0  0  0  0  0  0  0  0  0
   51.4012  -35.5147   -6.4073 C   0  0  2  0  0  0  0  0  0  0  0  0
   50.1781  -34.9684   -7.0634 C   0  0  0  0  0  0  0  0  0  0  0  0
   49.2339  -34.6237   -6.2451 O   0  0  0  0  0  0  0  0  0  0  0  0
   51.2480  -35.3845   -4.8981 C   0  0  0  0  0  0  0  0  0  0  0  0
   52.2378  -34.4855   -4.2543 C   0  0  0  0  0  0  0  0  0  0  0  0
   53.1980  -33.8937   -5.2905 C   0  0  0  0  0  0  0  0  0  0  0  0
   52.8215  -34.3067   -6.6294 N   0  0  0  0  0  0  0  0  0  0  0  0
   53.6893  -33.9808   -7.7046 C   0  0  0  0  0  0  0  0  0  0  0  0
   54.0726  -35.0205   -8.5976 N   0  0  0  0  0  0  0  0  0  0  0  0
   54.1277  -32.7813   -7.8833 N   0  0  0  0  0  0  0  0  0  0  0  0
   49.9250  -34.7837   -8.4091 N   0  0  0  0  0  0  0  0  0  0  0  0
   49.8631  -35.7143   -9.4986 C   0  0  2  0  0  0  0  0  0  0  0  0
   48.4980  -35.7326  -10.1267 C   0  0  0  0  0  0  0  0  0  0  0  0
   48.4425  -35.6523  -11.3658 O   0  0  0  0  0  0  0  0  0  0  0  0
   50.3661  -37.0861   -9.2330 C   0  0  0  0  0  0  0  0  0  0  0  0
   50.4603  -37.7968  -10.5983 C   0  0  0  0  0  0  0  0  0  0  0  0
   51.6856  -38.7033  -10.6165 C   0  0  0  0  0  0  0  0  0  0  0  0
   52.5591  -38.4101  -11.8108 C   0  0  0  0  0  0  0  0  0  0  0  0
   53.1286  -37.0837  -11.7851 N   0  0  0  0  0  0  0  0  0  0  0  0
   47.3158  -35.8360   -9.3528 N   0  0  0  0  0  0  0  0  0  0  0  0
   47.1365  -36.5600   -8.1411 C   0  0  2  0  0  0  0  0  0  0  0  0
   46.4265  -37.8313   -8.2464 C   0  0  0  0  0  0  0  0  0  0  0  0
   45.8033  -38.1144   -9.3209 O   0  0  0  0  0  0  0  0  0  0  0  0
   46.5788  -35.7452   -6.9889 C   0  0  0  0  0  0  0  0  0  0  0  0
   47.6310  -35.1587   -6.1113 C   0  0  0  0  0  0  0  0  0  0  0  0
   47.0969  -34.1951   -5.0663 C   0  0  0  0  0  0  0  0  0  0  0  0
   47.5566  -34.5311   -3.7391 N   0  0  0  0  0  0  0  0  0  0  0  0
   46.9319  -35.5812   -3.0123 C   0  0  0  0  0  0  0  0  0  0  0  0
   46.6268  -35.3165   -1.7850 N   0  0  0  0  0  0  0  0  0  0  0  0
   46.6522  -36.8482   -3.5860 N   0  0  0  0  0  0  0  0  0  0  0  0
   46.3678  -38.8087   -7.2290 N   0  0  0  0  0  0  0  0  0  0  0  0
   45.1542  -39.3661   -6.6666 C   0  0  0  0  0  0  0  0  0  0  0  0
   44.0627  -39.5536   -7.6135 C   0  0  0  0  0  0  0  0  0  0  0  0
   43.6082  -38.4467   -8.3412 C   0  0  0  0  0  0  0  0  0  0  0  0
   42.5765  -38.5738   -9.2449 C   0  0  0  0  0  0  0  0  0  0  0  0
   41.9575  -39.7904   -9.4645 C   0  0  0  0  0  0  0  0  0  0  0  0
   40.8673  -39.9326  -10.4233 C   0  0  0  0  0  0  0  0  0  0  0  0
   40.4819  -38.9342  -11.3359 N   0  0  0  0  0  0  0  0  0  0  0  0
   40.2090  -41.0568  -10.4365 N   0  0  0  0  0  0  0  0  0  0  0  0
   42.4075  -40.8753   -8.7468 C   0  0  0  0  0  0  0  0  0  0  0  0
   43.4581  -40.7674   -7.8198 C   0  0  0  0  0  0  0  0  0  0  0  0
   54.4508  -36.7786  -12.1419 C   0  0  0  0  0  0  0  0  0  0  0  0
   55.5559  -37.7551  -11.9704 C   0  0  0  0  0  0  0  0  0  0  0  0
   55.5876  -38.3626  -10.6097 C   0  0  0  0  0  0  0  0  0  0  0  0
   56.6825  -37.7826   -9.7348 C   0  0  0  0  0  0  0  0  0  0  0  0
   56.4528  -36.4190   -9.2934 C   0  0  0  0  0  0  0  0  0  0  0  0
   54.7275  -35.6507  -12.6223 O   0  0  0  0  0  0  0  0  0  0  0  0
   56.9717  -35.4975  -10.0339 O   0  0  0  0  0  0  0  0  0  0  0  0
   59.3328  -35.9450   -6.3114 H   0  0  0  0  0  0  0  0  0  0  0  0
   54.9541  -32.4387   -7.3537 H   0  0  0  0  0  0  0  0  0  0  0  0
   46.1850  -36.0785   -1.2250 H   0  0  0  0  0  0  0  0  0  0  0  0
   39.3340  -41.1914  -10.9709 H   0  0  0  0  0  0  0  0  0  0  0  0
  1  2  1  0
  1 58  1  0
  2  3  1  0
  2  5  1  1
  3  4  2  0
  3 12  1  0
  5  6  1  0
  6  7  1  0
  7  8  1  0
  8  9  1  0
  9 10  2  0
  9 11  1  0
 12 13  1  0
 13 14  1  0
 13 16  1  1
 14 15  2  0
 14 23  1  0
 16 17  1  0
 17 18  1  0
 18 19  1  0
 19 20  1  0
 20 21  1  0
 20 22  2  0
 23 24  1  0
 24 25  1  1
 24 27  1  0
 25 26  2  0
 25 32  1  0
 27 28  1  0
 28 29  1  0
 29 30  1  0
 30 31  1  0
 31 54  1  0
 32 33  1  0
 33 34  1  0
 33 36  1  1
 34 35  2  0
 34 43  1  0
 36 37  1  0
 37 38  1  0
 38 39  1  0
 39 40  1  0
 40 41  2  0
 40 42  1  0
 43 44  1  0
 44 45  1  0
 45 46  2  0
 45 53  1  0
 46 47  1  0
 47 48  2  0
 48 49  1  0
 48 52  1  0
 49 50  1  0
 49 51  2  0
 52 53  2  0
 54 55  1  0
 54 59  2  0
 55 56  1  0
 56 57  1  0
 57 58  1  0
 58 60  2  0
 10 61  1  0
 22 62  1  0
 41 63  1  0
 51 64  1  0
M  END
$$$$
