
     RDKit          3D

 64 65  0  0  0  0  0  0  0  0999 V2000
   53.5106  -33.2019   -3.6666 N   0  0  0  0  0  0  0  0  0  0  0  0
   52.3059  -33.8506   -4.0750 C   0  0  2  0  0  0  0  0  0  0  0  0
   51.2540  -32.8062   -4.2381 C   0  0  0  0  0  0  0  0  0  0  0  0
   51.4202  -31.8003   -3.4385 O   0  0  0  0  0  0  0  0  0  0  0  0
   51.9076  -34.9827   -3.2438 C   0  0  0  0  0  0  0  0  0  0  0  0
   52.0369  -34.9267   -1.7529 C   0  0  0  0  0  0  0  0  0  0  0  0
   52.7660  -33.7612   -1.1800 C   0  0  0  0  0  0  0  0  0  0  0  0
   52.5796  -33.4821    0.2066 N   0  0  0  0  0  0  0  0  0  0  0  0
   53.2123  -32.5086    0.9951 C   0  0  0  0  0  0  0  0  0  0  0  0
   52.5867  -31.4587    1.3041 N   0  0  0  0  0  0  0  0  0  0  0  0
   54.5956  -32.6864    1.4194 N   0  0  0  0  0  0  0  0  0  0  0  0
   50.1698  -32.7453   -5.0771 N   0  0  0  0  0  0  0  0  0  0  0  0
   49.1666  -33.7370   -5.4054 C   0  0  2  0  0  0  0  0  0  0  0  0
   48.7101  -33.6398   -6.8220 C   0  0  0  0  0  0  0  0  0  0  0  0
   47.4349  -33.4600   -6.9679 O   0  0  0  0  0  0  0  0  0  0  0  0
   47.9851  -33.4519   -4.4885 C   0  0  0  0  0  0  0  0  0  0  0  0
   48.3417  -32.7733   -3.2178 C   0  0  0  0  0  0  0  0  0  0  0  0
   49.8598  -32.7474   -3.0162 C   0  0  0  0  0  0  0  0  0  0  0  0
   50.3092  -33.9651   -2.3681 N   0  0  0  0  0  0  0  0  0  0  0  0
   51.6935  -34.1082   -2.0877 C   0  0  0  0  0  0  0  0  0  0  0  0
   52.5919  -33.1472   -2.6303 N   0  0  0  0  0  0  0  0  0  0  0  0
   52.1427  -35.0755   -1.3627 N   0  0  0  0  0  0  0  0  0  0  0  0
   49.4583  -33.7142   -7.9812 N   0  0  0  0  0  0  0  0  0  0  0  0
   50.2762  -34.7640   -8.5159 C   0  0  2  0  0  0  0  0  0  0  0  0
   49.7582  -35.2397   -9.8440 C   0  0  0  0  0  0  0  0  0  0  0  0
   50.5800  -35.3378  -10.7714 O   0  0  0  0  0  0  0  0  0  0  0  0
   50.5853  -35.8970   -7.6070 C   0  0  0  0  0  0  0  0  0  0  0  0
   51.6842  -36.7317   -8.2952 C   0  0  0  0  0  0  0  0  0  0  0  0
   52.6532  -37.2621   -7.2449 C   0  0  0  0  0  0  0  0  0  0  0  0
   54.0770  -36.9043   -7.5913 C   0  0  0  0  0  0  0  0  0  0  0  0
   54.3231  -35.4818   -7.5810 N   0  0  0  0  0  0  0  0  0  0  0  0
   48.3943  -35.5657  -10.0459 N   0  0  0  0  0  0  0  0  0  0  0  0
   47.6369  -36.5670   -9.3766 C   0  0  2  0  0  0  0  0  0  0  0  0
   46.3668  -36.9378   -9.9939 C   0  0  0  0  0  0  0  0  0  0  0  0
   45.4255  -36.0814  -10.0546 O   0  0  0  0  0  0  0  0  0  0  0  0
   47.4451  -36.3330   -7.8896 C   0  0  0  0  0  0  0  0  0  0  0  0
   47.3822  -37.5910   -7.0930 C   0  0  0  0  0  0  0  0  0  0  0  0
   46.0318  -37.8462   -6.4473 C   0  0  0  0  0  0  0  0  0  0  0  0
   45.9201  -39.1970   -5.9485 N   0  0  0  0  0  0  0  0  0  0  0  0
   46.7089  -39.6166   -4.8427 C   0  0  0  0  0  0  0  0  0  0  0  0
   47.9425  -39.2325   -4.8491 N   0  0  0  0  0  0  0  0  0  0  0  0
   46.1875  -40.4082   -3.7872 N   0  0  0  0  0  0  0  0  0  0  0  0
   46.0794  -38.2038  -10.5492 N   0  0  0  0  0  0  0  0  0  0  0  0
   45.9191  -38.4865  -11.9613 C   0  0  0  0  0  0  0  0  0  0  0  0
   44.5549  -38.7762  -12.3834 C   0  0  0  0  0  0  0  0  0  0  0  0
   44.2926  -38.9223  -13.7513 C   0  0  0  0  0  0  0  0  0  0  0  0
   43.0183  -39.1927  -14.1988 C   0  0  0  0  0  0  0  0  0  0  0  0
   41.9602  -39.3290  -13.3194 C   0  0  0  0  0  0  0  0  0  0  0  0
   40.6091  -39.6196  -13.7865 C   0  0  0  0  0  0  0  0  0  0  0  0
   39.4973  -39.7796  -12.9400 N   0  0  0  0  0  0  0  0  0  0  0  0
   40.4192  -39.7370  -15.0700 N   0  0  0  0  0  0  0  0  0  0  0  0
   42.2228  -39.1843  -11.9760 C   0  0  0  0  0  0  0  0  0  0  0  0
   43.5153  -38.9080  -11.4984 C   0  0  0  0  0  0  0  0  0  0  0  0
   55.4733  -34.8772   -7.0516 C   0  0  0  0  0  0  0  0  0  0  0  0
   56.2316  -35.4816   -5.9273 C   0  0  0  0  0  0  0  0  0  0  0  0
   55.3606  -35.8683   -4.7813 C   0  0  0  0  0  0  0  0  0  0  0  0
   55.4569  -34.8985   -3.6191 C   0  0  0  0  0  0  0  0  0  0  0  0
   54.8444  -33.6034   -3.8526 C   0  0  0  0  0  0  0  0  0  0  0  0
   55.8892  -33.7919   -7.5297 O   0  0  0  0  0  0  0  0  0  0  0  0
   55.6349  -32.6834   -4.2946 O   0  0  0  0  0  0  0  0  0  0  0  0
   52.8972  -30.5315    1.4745 H   0  0  0  0  0  0  0  0  0  0  0  0
   51.4940  -35.7936   -0.9827 H   0  0  0  0  0  0  0  0  0  0  0  0
   48.5253  -39.5029   -5.6716 H   0  0  0  0  0  0  0  0  0  0  0  0
   39.4822  -39.8463  -15.4935 H   0  0  0  0  0  0  0  0  0  0  0  0
  1  2  1  0
  1 58  1  0
  2  3  1  0
  2  5  1  1
  3  4  2  0
  3 12  1  0
  5  6  1  0
  6  7  1  0
  7  8  1  0
  8  9  1  0
  9 10  2  0
  9 11  1  0
 12 13  1  0
 13 14  1  0
 13 16  1  1
 14 15  2  0
 14 23  1  0
 16 17  1  0
 17 18  1  0
 18 19  1  0
 19 20  1  0
 20 21  1  0
 20 22  2  0
 23 24  1  0
 24 25  1  6
 24 27  1  0
 25 26  2  0
 25 32  1  0
 27 28  1  0
 28 29  1  0
 29 30  1  0
 30 31  1  0
 31 54  1  0
 32 33  1  0
 33 34  1  0
 33 36  1  1
 34 35  2  0
 34 43  1  0
 36 37  1  0
 37 38  1  0
 38 39  1  0
 39 40  1  0
 40 41  2  0
 40 42  1  0
 43 44  1  0
 44 45  1  0
 45 46  2  0
 45 53  1  0
 46 47  1  0
 47 48  2  0
 48 49  1  0
 48 52  1  0
 49 50  1  0
 49 51  2  0
 52 53  2  0
 54 55  1  0
 54 59  2  0
 55 56  1  0
 56 57  1  0
 57 58  1  0
 58 60  2  0
 10 61  1  0
 22 62  1  0
 41 63  1  0
 51 64  1  0
M  END
$$$$
