
     RDKit          3D

 64 65  0  0  0  0  0  0  0  0999 V2000
   52.1471  -35.1185   -5.2519 N   0  0  0  0  0  0  0  0  0  0  0  0
   51.3395  -36.0601   -5.9592 C   0  0  2  0  0  0  0  0  0  0  0  0
   49.9125  -35.6633   -5.7862 C   0  0  0  0  0  0  0  0  0  0  0  0
   49.6920  -35.0717   -4.6548 O   0  0  0  0  0  0  0  0  0  0  0  0
   51.6178  -37.4596   -5.6507 C   0  0  0  0  0  0  0  0  0  0  0  0
   52.4365  -37.8365   -4.4548 C   0  0  0  0  0  0  0  0  0  0  0  0
   52.2288  -37.0395   -3.2139 C   0  0  0  0  0  0  0  0  0  0  0  0
   53.1853  -36.0248   -2.9127 N   0  0  0  0  0  0  0  0  0  0  0  0
   53.1870  -35.1142   -1.8447 C   0  0  0  0  0  0  0  0  0  0  0  0
   54.2013  -34.3923   -1.6472 N   0  0  0  0  0  0  0  0  0  0  0  0
   52.0444  -35.0312   -0.9431 N   0  0  0  0  0  0  0  0  0  0  0  0
   48.8285  -35.8221   -6.6125 N   0  0  0  0  0  0  0  0  0  0  0  0
   48.3666  -36.9719   -7.3622 C   0  0  2  0  0  0  0  0  0  0  0  0
   47.7447  -36.5924   -8.6638 C   0  0  0  0  0  0  0  0  0  0  0  0
   46.5243  -37.0002   -8.8189 O   0  0  0  0  0  0  0  0  0  0  0  0
   47.3119  -37.6397   -6.4907 C   0  0  0  0  0  0  0  0  0  0  0  0
   47.7183  -38.9518   -5.9290 C   0  0  0  0  0  0  0  0  0  0  0  0
   47.4425  -39.0141   -4.4236 C   0  0  0  0  0  0  0  0  0  0  0  0
   46.2368  -39.7758   -4.1570 N   0  0  0  0  0  0  0  0  0  0  0  0
   45.0344  -39.0664   -3.8993 C   0  0  0  0  0  0  0  0  0  0  0  0
   45.0469  -38.0692   -2.8841 N   0  0  0  0  0  0  0  0  0  0  0  0
   43.9513  -39.3050   -4.5573 N   0  0  0  0  0  0  0  0  0  0  0  0
   48.2914  -35.8729   -9.7089 N   0  0  0  0  0  0  0  0  0  0  0  0
   49.4288  -36.1297  -10.5440 C   0  0  2  0  0  0  0  0  0  0  0  0
   49.0293  -36.2705  -11.9859 C   0  0  0  0  0  0  0  0  0  0  0  0
   49.9024  -36.0444  -12.8412 O   0  0  0  0  0  0  0  0  0  0  0  0
   50.3379  -37.2228  -10.1148 C   0  0  0  0  0  0  0  0  0  0  0  0
   51.6031  -37.1179  -10.9901 C   0  0  0  0  0  0  0  0  0  0  0  0
   52.8298  -37.4670  -10.1554 C   0  0  0  0  0  0  0  0  0  0  0  0
   53.8704  -36.3783  -10.2395 C   0  0  0  0  0  0  0  0  0  0  0  0
   53.4288  -35.1263   -9.6721 N   0  0  0  0  0  0  0  0  0  0  0  0
   47.7175  -36.6437  -12.3695 N   0  0  0  0  0  0  0  0  0  0  0  0
   46.5685  -36.7424  -11.5363 C   0  0  2  0  0  0  0  0  0  0  0  0
   46.1332  -35.5097  -10.8863 C   0  0  0  0  0  0  0  0  0  0  0  0
   46.9442  -34.5320  -10.7889 O   0  0  0  0  0  0  0  0  0  0  0  0
   46.6075  -37.8770  -10.5294 C   0  0  0  0  0  0  0  0  0  0  0  0
   47.0004  -39.1861  -11.1237 C   0  0  0  0  0  0  0  0  0  0  0  0
   46.4291  -39.4316  -12.5091 C   0  0  0  0  0  0  0  0  0  0  0  0
   46.3388  -40.8407  -12.8123 N   0  0  0  0  0  0  0  0  0  0  0  0
   46.4472  -41.2895  -14.1568 C   0  0  0  0  0  0  0  0  0  0  0  0
   46.4770  -40.3669  -15.0609 N   0  0  0  0  0  0  0  0  0  0  0  0
   46.5210  -42.6637  -14.5015 N   0  0  0  0  0  0  0  0  0  0  0  0
   44.8495  -35.2971  -10.3381 N   0  0  0  0  0  0  0  0  0  0  0  0
   44.3718  -34.0516   -9.7721 C   0  0  0  0  0  0  0  0  0  0  0  0
   44.7975  -33.7905   -8.4032 C   0  0  0  0  0  0  0  0  0  0  0  0
   43.9022  -34.0570   -7.3598 C   0  0  0  0  0  0  0  0  0  0  0  0
   44.2578  -33.8227   -6.0499 C   0  0  0  0  0  0  0  0  0  0  0  0
   45.5031  -33.3199   -5.7209 C   0  0  0  0  0  0  0  0  0  0  0  0
   45.8875  -33.0735   -4.3354 C   0  0  0  0  0  0  0  0  0  0  0  0
   47.1891  -32.7339   -3.9246 N   0  0  0  0  0  0  0  0  0  0  0  0
   44.9662  -33.1728   -3.4196 N   0  0  0  0  0  0  0  0  0  0  0  0
   46.3795  -33.0593   -6.7498 C   0  0  0  0  0  0  0  0  0  0  0  0
   46.0366  -33.2907   -8.0928 C   0  0  0  0  0  0  0  0  0  0  0  0
   54.2239  -34.2903   -8.8738 C   0  0  0  0  0  0  0  0  0  0  0  0
   55.3092  -34.8257   -8.0136 C   0  0  0  0  0  0  0  0  0  0  0  0
   54.8666  -35.9678   -7.1644 C   0  0  0  0  0  0  0  0  0  0  0  0
   54.6466  -35.5708   -5.7171 C   0  0  0  0  0  0  0  0  0  0  0  0
   53.4803  -34.7391   -5.4830 C   0  0  0  0  0  0  0  0  0  0  0  0
   54.0268  -33.0490   -8.8732 O   0  0  0  0  0  0  0  0  0  0  0  0
   53.6929  -33.4658   -5.4858 O   0  0  0  0  0  0  0  0  0  0  0  0
   54.8018  -33.9121   -2.2748 H   0  0  0  0  0  0  0  0  0  0  0  0
   43.8002  -40.2314   -5.0042 H   0  0  0  0  0  0  0  0  0  0  0  0
   45.5651  -40.0660  -15.4701 H   0  0  0  0  0  0  0  0  0  0  0  0
   43.9602  -33.2667   -3.6400 H   0  0  0  0  0  0  0  0  0  0  0  0
  1  2  1  0
  1 58  1  0
  2  3  1  0
  2  5  1  1
  3  4  2  0
  3 12  1  0
  5  6  1  0
  6  7  1  0
  7  8  1  0
  8  9  1  0
  9 10  2  0
  9 11  1  0
 12 13  1  0
 13 14  1  0
 13 16  1  1
 14 15  2  0
 14 23  1  0
 16 17  1  0
 17 18  1  0
 18 19  1  0
 19 20  1  0
 20 21  1  0
 20 22  2  0
 23 24  1  0
 24 25  1  6
 24 27  1  0
 25 26  2  0
 25 32  1  0
 27 28  1  0
 28 29  1  0
 29 30  1  0
 30 31  1  0
 31 54  1  0
 32 33  1  0
 33 34  1  0
 33 36  1  1
 34 35  2  0
 34 43  1  0
 36 37  1  0
 37 38  1  0
 38 39  1  0
 39 40  1  0
 40 41  2  0
 40 42  1  0
 43 44  1  0
 44 45  1  0
 45 46  2  0
 45 53  1  0
 46 47  1  0
 47 48  2  0
 48 49  1  0
 48 52  1  0
 49 50  1  0
 49 51  2  0
 52 53  2  0
 54 55  1  0
 54 59  2  0
 55 56  1  0
 56 57  1  0
 57 58  1  0
 58 60  2  0
 10 61  1  0
 22 62  1  0
 41 63  1  0
 51 64  1  0
M  END
$$$$
