
     RDKit          3D

 64 65  0  0  0  0  0  0  0  0999 V2000
   53.5403  -34.3367   -5.0504 N   0  0  0  0  0  0  0  0  0  0  0  0
   52.2937  -34.9814   -5.3134 C   0  0  2  0  0  0  0  0  0  0  0  0
   51.2122  -33.9637   -5.1776 C   0  0  0  0  0  0  0  0  0  0  0  0
   51.4991  -33.0419   -4.3135 O   0  0  0  0  0  0  0  0  0  0  0  0
   52.0662  -36.2078   -4.5548 C   0  0  0  0  0  0  0  0  0  0  0  0
   51.9063  -36.1741   -3.0662 C   0  0  0  0  0  0  0  0  0  0  0  0
   52.5794  -35.0628   -2.3381 C   0  0  0  0  0  0  0  0  0  0  0  0
   54.0017  -35.1059   -2.2360 N   0  0  0  0  0  0  0  0  0  0  0  0
   54.8494  -34.2808   -1.4807 C   0  0  0  0  0  0  0  0  0  0  0  0
   55.8990  -33.8227   -2.0074 N   0  0  0  0  0  0  0  0  0  0  0  0
   54.5444  -33.9883   -0.0855 N   0  0  0  0  0  0  0  0  0  0  0  0
   49.9969  -33.8539   -5.8053 N   0  0  0  0  0  0  0  0  0  0  0  0
   48.9684  -34.8407   -6.0622 C   0  0  2  0  0  0  0  0  0  0  0  0
   48.2692  -34.6120   -7.3597 C   0  0  0  0  0  0  0  0  0  0  0  0
   46.9852  -34.4633   -7.2629 O   0  0  0  0  0  0  0  0  0  0  0  0
   47.9612  -34.6953   -4.9298 C   0  0  0  0  0  0  0  0  0  0  0  0
   48.5653  -34.4557   -3.5957 C   0  0  0  0  0  0  0  0  0  0  0  0
   48.9164  -32.9765   -3.4092 C   0  0  0  0  0  0  0  0  0  0  0  0
   48.4809  -32.5091   -2.1066 N   0  0  0  0  0  0  0  0  0  0  0  0
   48.9823  -33.1660   -0.9523 C   0  0  0  0  0  0  0  0  0  0  0  0
   50.1870  -33.9136   -1.0747 N   0  0  0  0  0  0  0  0  0  0  0  0
   48.3768  -33.0978    0.1842 N   0  0  0  0  0  0  0  0  0  0  0  0
   48.8038  -34.5380   -8.6315 N   0  0  0  0  0  0  0  0  0  0  0  0
   49.5328  -35.4962   -9.4108 C   0  0  2  0  0  0  0  0  0  0  0  0
   48.7981  -35.8484  -10.6736 C   0  0  0  0  0  0  0  0  0  0  0  0
   48.8830  -35.0485  -11.6212 O   0  0  0  0  0  0  0  0  0  0  0  0
   50.0152  -36.7066   -8.6981 C   0  0  0  0  0  0  0  0  0  0  0  0
   50.9903  -37.4250   -9.6525 C   0  0  0  0  0  0  0  0  0  0  0  0
   52.1371  -38.0277   -8.8494 C   0  0  0  0  0  0  0  0  0  0  0  0
   53.4720  -37.5853   -9.3949 C   0  0  0  0  0  0  0  0  0  0  0  0
   53.6923  -36.1638   -9.2717 N   0  0  0  0  0  0  0  0  0  0  0  0
   48.0368  -37.0371  -10.7938 N   0  0  0  0  0  0  0  0  0  0  0  0
   46.9086  -37.4231  -10.0175 C   0  0  2  0  0  0  0  0  0  0  0  0
   46.6710  -38.8580   -9.8910 C   0  0  0  0  0  0  0  0  0  0  0  0
   45.7540  -39.4054  -10.5858 O   0  0  0  0  0  0  0  0  0  0  0  0
   45.6170  -36.7101  -10.3726 C   0  0  0  0  0  0  0  0  0  0  0  0
   45.1801  -36.9369  -11.7793 C   0  0  0  0  0  0  0  0  0  0  0  0
   43.7076  -37.2798  -11.9208 C   0  0  0  0  0  0  0  0  0  0  0  0
   42.8599  -36.2601  -11.3487 N   0  0  0  0  0  0  0  0  0  0  0  0
   42.4944  -35.1218  -12.1180 C   0  0  0  0  0  0  0  0  0  0  0  0
   42.4752  -35.2870  -13.3994 N   0  0  0  0  0  0  0  0  0  0  0  0
   42.1663  -33.8734  -11.5295 N   0  0  0  0  0  0  0  0  0  0  0  0
   47.3920  -39.7228   -9.0389 N   0  0  0  0  0  0  0  0  0  0  0  0
   47.5413  -39.5611   -7.6067 C   0  0  0  0  0  0  0  0  0  0  0  0
   46.3167  -39.7261   -6.8344 C   0  0  0  0  0  0  0  0  0  0  0  0
   45.5596  -38.5890   -6.5261 C   0  0  0  0  0  0  0  0  0  0  0  0
   44.3969  -38.6943   -5.7953 C   0  0  0  0  0  0  0  0  0  0  0  0
   43.9388  -39.9181   -5.3435 C   0  0  0  0  0  0  0  0  0  0  0  0
   42.7060  -40.0370   -4.5726 C   0  0  0  0  0  0  0  0  0  0  0  0
   41.9520  -38.9419   -4.1136 N   0  0  0  0  0  0  0  0  0  0  0  0
   42.2745  -41.2339   -4.2924 N   0  0  0  0  0  0  0  0  0  0  0  0
   44.6864  -41.0328   -5.6487 C   0  0  0  0  0  0  0  0  0  0  0  0
   45.8756  -40.9474   -6.3926 C   0  0  0  0  0  0  0  0  0  0  0  0
   54.9072  -35.5776   -8.8856 C   0  0  0  0  0  0  0  0  0  0  0  0
   55.8607  -36.2690   -7.9818 C   0  0  0  0  0  0  0  0  0  0  0  0
   55.2106  -36.8043   -6.7521 C   0  0  0  0  0  0  0  0  0  0  0  0
   55.4929  -35.9587   -5.5249 C   0  0  0  0  0  0  0  0  0  0  0  0
   54.8274  -34.6689   -5.5063 C   0  0  0  0  0  0  0  0  0  0  0  0
   55.2147  -34.4341   -9.3068 O   0  0  0  0  0  0  0  0  0  0  0  0
   55.5128  -33.6802   -5.9748 O   0  0  0  0  0  0  0  0  0  0  0  0
   56.7895  -33.6077   -1.6252 H   0  0  0  0  0  0  0  0  0  0  0  0
   47.4400  -32.6526    0.2556 H   0  0  0  0  0  0  0  0  0  0  0  0
   42.8503  -36.1864  -13.7732 H   0  0  0  0  0  0  0  0  0  0  0  0
   41.3689  -41.4117   -3.8261 H   0  0  0  0  0  0  0  0  0  0  0  0
  1  2  1  0
  1 58  1  0
  2  3  1  0
  2  5  1  1
  3  4  2  0
  3 12  1  0
  5  6  1  0
  6  7  1  0
  7  8  1  0
  8  9  1  0
  9 10  2  0
  9 11  1  0
 12 13  1  0
 13 14  1  0
 13 16  1  1
 14 15  2  0
 14 23  1  0
 16 17  1  0
 17 18  1  0
 18 19  1  0
 19 20  1  0
 20 21  1  0
 20 22  2  0
 23 24  1  0
 24 25  1  6
 24 27  1  0
 25 26  2  0
 25 32  1  0
 27 28  1  0
 28 29  1  0
 29 30  1  0
 30 31  1  0
 31 54  1  0
 32 33  1  0
 33 34  1  0
 33 36  1  6
 34 35  2  0
 34 43  1  0
 36 37  1  0
 37 38  1  0
 38 39  1  0
 39 40  1  0
 40 41  2  0
 40 42  1  0
 43 44  1  0
 44 45  1  0
 45 46  2  0
 45 53  1  0
 46 47  1  0
 47 48  2  0
 48 49  1  0
 48 52  1  0
 49 50  1  0
 49 51  2  0
 52 53  2  0
 54 55  1  0
 54 59  2  0
 55 56  1  0
 56 57  1  0
 57 58  1  0
 58 60  2  0
 10 61  1  0
 22 62  1  0
 41 63  1  0
 51 64  1  0
M  END
$$$$
