
     RDKit          3D

 22 24  0  0  0  0  0  0  0  0999 V2000
   62.7627   17.9829   32.8455 O   0  0  0  0  0  0  0  0  0  0  0  0
   62.0915   17.7565   31.6785 C   0  0  1  0  0  0  0  0  0  0  0  0
   62.9655   18.0355   30.4556 C   0  0  0  0  0  0  0  0  0  0  0  0
   62.8530   16.8899   29.5610 N   0  0  1  0  0  4  0  0  0  0  0  0
   61.5193   16.3082   29.9356 C   0  0  0  0  0  0  0  0  0  0  0  0
   61.6375   16.3815   31.4176 C   0  0  2  0  0  0  0  0  0  0  0  0
   60.3993   15.8996   32.1527 C   0  0  0  0  0  0  0  0  0  0  0  0
   58.9874   16.7772   31.6707 S   0  0  0  0  0  0  0  0  0  0  0  0
   57.5610   15.7927   31.0669 C   0  0  0  0  0  0  0  0  0  0  0  0
   57.6403   14.5522   31.9244 C   0  0  0  0  0  0  0  0  0  0  0  0
   57.7009   13.6519   32.5635 C   0  0  0  0  0  0  0  0  0  0  0  0
   62.7598   17.2679   28.2298 C   0  0  0  0  0  0  0  0  0  0  0  0
   61.5728   17.0560   27.4112 C   0  0  0  0  0  0  0  0  0  0  0  0
   60.6014   17.9663   27.1136 C   0  0  0  0  0  0  0  0  0  0  0  0
   60.3283   19.2228   27.5079 N   0  0  0  0  0  0  0  0  0  0  0  0
   61.3617   15.9518   26.6030 C   0  0  0  0  0  0  0  0  0  0  0  0
   60.3122   16.1732   25.8192 N   0  0  0  0  0  0  0  0  0  0  0  0
   59.8367   17.4024   26.0789 C   0  0  0  0  0  0  0  0  0  0  0  0
   58.8639   18.1752   25.4979 C   0  0  0  0  0  0  0  0  0  0  0  0
   58.4095   17.7988   24.1691 N   0  0  0  0  0  0  0  0  0  0  0  0
   58.6067   19.4312   25.9180 N   0  0  0  0  0  0  0  0  0  0  0  0
   59.3559   19.9352   26.9280 C   0  0  0  0  0  0  0  0  0  0  0  0
  2  1  1  1
  2  3  1  0
  2  6  1  0
  3  4  1  0
  4  5  1  0
  4 12  1  6
  5  6  1  0
  6  7  1  1
  7  8  1  0
  8  9  1  0
  9 10  1  0
 10 11  3  0
 12 13  1  0
 13 14  1  0
 13 16  2  0
 14 15  2  0
 14 18  1  0
 15 22  1  0
 16 17  1  0
 17 18  1  0
 18 19  2  0
 19 20  1  0
 19 21  1  0
 21 22  2  0
M  CHG  1   4   1
M  END
$$$$
