
     RDKit          3D

 22 24  0  0  0  0  0  0  0  0999 V2000
   61.5785   18.5183   32.6976 O   0  0  0  0  0  0  0  0  0  0  0  0
   61.1579   17.9010   31.5549 C   0  0  1  0  0  0  0  0  0  0  0  0
   62.1571   18.0773   30.4115 C   0  0  0  0  0  0  0  0  0  0  0  0
   62.3961   16.7635   29.8265 N   0  0  1  0  0  4  0  0  0  0  0  0
   61.1427   16.0129   30.1774 C   0  0  0  0  0  0  0  0  0  0  0  0
   61.0020   16.4385   31.5968 C   0  0  2  0  0  0  0  0  0  0  0  0
   59.7648   15.8836   32.2801 C   0  0  0  0  0  0  0  0  0  0  0  0
   58.5692   15.3857   31.1319 S   0  0  0  0  0  0  0  0  0  0  0  0
   58.5622   13.6140   30.6524 C   0  0  0  0  0  0  0  0  0  0  0  0
   58.6551   12.9185   31.9896 C   0  0  0  0  0  0  0  0  0  0  0  0
   58.7152   12.4193   32.9743 C   0  0  0  0  0  0  0  0  0  0  0  0
   62.4569   16.8064   28.4415 C   0  0  0  0  0  0  0  0  0  0  0  0
   61.2816   16.7764   27.5802 C   0  0  0  0  0  0  0  0  0  0  0  0
   60.4893   17.8293   27.2272 C   0  0  0  0  0  0  0  0  0  0  0  0
   60.4181   19.1233   27.5870 N   0  0  0  0  0  0  0  0  0  0  0  0
   60.9165   15.7035   26.7849 C   0  0  0  0  0  0  0  0  0  0  0  0
   59.9486   16.0784   25.9558 N   0  0  0  0  0  0  0  0  0  0  0  0
   59.6783   17.3761   26.1734 C   0  0  0  0  0  0  0  0  0  0  0  0
   58.8717   18.2866   25.5398 C   0  0  0  0  0  0  0  0  0  0  0  0
   58.4088   17.9587   24.2011 N   0  0  0  0  0  0  0  0  0  0  0  0
   58.8152   19.5780   25.9259 N   0  0  0  0  0  0  0  0  0  0  0  0
   59.6016   19.9741   26.9555 C   0  0  0  0  0  0  0  0  0  0  0  0
  2  1  1  1
  2  3  1  0
  2  6  1  0
  3  4  1  0
  4  5  1  0
  4 12  1  6
  5  6  1  0
  6  7  1  6
  7  8  1  0
  8  9  1  0
  9 10  1  0
 10 11  3  0
 12 13  1  0
 13 14  1  0
 13 16  2  0
 14 15  2  0
 14 18  1  0
 15 22  1  0
 16 17  1  0
 17 18  1  0
 18 19  2  0
 19 20  1  0
 19 21  1  0
 21 22  2  0
M  CHG  1   4   1
M  END
$$$$
