
     RDKit          3D

 22 24  0  0  0  0  0  0  0  0999 V2000
   64.0633   17.1614   32.1928 O   0  0  0  0  0  0  0  0  0  0  0  0
   62.7647   17.3371   31.8101 C   0  0  1  0  0  0  0  0  0  0  0  0
   62.6597   18.0559   30.4650 C   0  0  0  0  0  0  0  0  0  0  0  0
   61.7417   17.2941   29.6269 N   0  0  1  0  0  4  0  0  0  0  0  0
   60.8929   16.5745   30.6365 C   0  0  0  0  0  0  0  0  0  0  0  0
   61.9632   16.1270   31.5691 C   0  0  2  0  0  0  0  0  0  0  0  0
   61.4411   15.3776   32.7821 C   0  0  0  0  0  0  0  0  0  0  0  0
   60.8796   13.7949   32.3630 S   0  0  0  0  0  0  0  0  0  0  0  0
   59.2814   13.6887   31.4668 C   0  0  0  0  0  0  0  0  0  0  0  0
   58.3070   14.2397   32.4804 C   0  0  0  0  0  0  0  0  0  0  0  0
   57.5845   14.6331   33.2191 C   0  0  0  0  0  0  0  0  0  0  0  0
   60.8872   18.1119   28.9026 C   0  0  0  0  0  0  0  0  0  0  0  0
   59.9587   17.6179   27.8937 C   0  0  0  0  0  0  0  0  0  0  0  0
   59.6674   18.1886   26.6894 C   0  0  0  0  0  0  0  0  0  0  0  0
   59.9896   19.3477   26.0880 N   0  0  0  0  0  0  0  0  0  0  0  0
   59.3950   16.3533   27.8955 C   0  0  0  0  0  0  0  0  0  0  0  0
   58.7930   16.1372   26.7312 N   0  0  0  0  0  0  0  0  0  0  0  0
   58.9603   17.2214   25.9559 C   0  0  0  0  0  0  0  0  0  0  0  0
   58.6581   17.4953   24.6464 C   0  0  0  0  0  0  0  0  0  0  0  0
   58.3675   16.3699   23.7731 N   0  0  0  0  0  0  0  0  0  0  0  0
   58.9880   18.6696   24.0700 N   0  0  0  0  0  0  0  0  0  0  0  0
   59.6569   19.5832   24.8140 C   0  0  0  0  0  0  0  0  0  0  0  0
  2  1  1  6
  2  3  1  0
  2  6  1  0
  3  4  1  0
  4  5  1  0
  4 12  1  1
  5  6  1  0
  6  7  1  1
  7  8  1  0
  8  9  1  0
  9 10  1  0
 10 11  3  0
 12 13  1  0
 13 14  1  0
 13 16  2  0
 14 15  2  0
 14 18  1  0
 15 22  1  0
 16 17  1  0
 17 18  1  0
 18 19  2  0
 19 20  1  0
 19 21  1  0
 21 22  2  0
M  CHG  1   4   1
M  END
$$$$
