
     RDKit          3D

 22 24  0  0  0  0  0  0  0  0999 V2000
   43.4403   43.5194   32.2390 O   0  0  0  0  0  0  0  0  0  0  0  0
   44.5769   44.1802   31.8713 C   0  0  1  0  0  0  0  0  0  0  0  0
   45.3686   43.4075   30.8162 C   0  0  0  0  0  0  0  0  0  0  0  0
   45.6941   44.3356   29.7401 N   0  0  1  0  0  4  0  0  0  0  0  0
   45.6620   45.6685   30.4327 C   0  0  0  0  0  0  0  0  0  0  0  0
   44.4151   45.4926   31.2262 C   0  0  2  0  0  0  0  0  0  0  0  0
   44.0870   46.6773   32.1175 C   0  0  0  0  0  0  0  0  0  0  0  0
   45.3412   47.8696   32.0836 S   0  0  0  0  0  0  0  0  0  0  0  0
   46.3662   48.0429   33.5963 C   0  0  0  0  0  0  0  0  0  0  0  0
   45.3238   48.0835   34.6883 C   0  0  0  0  0  0  0  0  0  0  0  0
   44.5670   48.1243   35.4933 C   0  0  0  0  0  0  0  0  0  0  0  0
   46.9879   44.1650   29.2702 C   0  0  0  0  0  0  0  0  0  0  0  0
   47.5704   44.9643   28.1999 C   0  0  0  0  0  0  0  0  0  0  0  0
   47.0959   45.1153   26.9298 C   0  0  0  0  0  0  0  0  0  0  0  0
   46.0979   44.5600   26.2195 N   0  0  0  0  0  0  0  0  0  0  0  0
   48.5802   45.8954   28.3739 C   0  0  0  0  0  0  0  0  0  0  0  0
   48.7163   46.6112   27.2631 N   0  0  0  0  0  0  0  0  0  0  0  0
   47.8101   46.1862   26.3672 C   0  0  0  0  0  0  0  0  0  0  0  0
   47.4331   46.6353   25.1273 C   0  0  0  0  0  0  0  0  0  0  0  0
   47.8233   47.9848   24.7529 N   0  0  0  0  0  0  0  0  0  0  0  0
   46.4318   46.0550   24.4338 N   0  0  0  0  0  0  0  0  0  0  0  0
   45.7761   45.0154   25.0037 C   0  0  0  0  0  0  0  0  0  0  0  0
  2  1  1  6
  2  3  1  0
  2  6  1  0
  3  4  1  0
  4  5  1  0
  4 12  1  1
  5  6  1  0
  6  7  1  1
  7  8  1  0
  8  9  1  0
  9 10  1  0
 10 11  3  0
 12 13  1  0
 13 14  1  0
 13 16  2  0
 14 15  2  0
 14 18  1  0
 15 22  1  0
 16 17  1  0
 17 18  1  0
 18 19  2  0
 19 20  1  0
 19 21  1  0
 21 22  2  0
M  CHG  1   4   1
M  END
$$$$
