
     RDKit          3D

 22 24  0  0  0  0  0  0  0  0999 V2000
   61.8314   16.0782   32.4411 O   0  0  0  0  0  0  0  0  0  0  0  0
   61.2413   16.6959   31.3762 C   0  0  1  0  0  0  0  0  0  0  0  0
   62.2741   17.2968   30.4226 C   0  0  0  0  0  0  0  0  0  0  0  0
   61.9291   16.8708   29.0717 N   0  0  1  0  0  4  0  0  0  0  0  0
   60.4551   16.5995   29.1774 C   0  0  0  0  0  0  0  0  0  0  0  0
   60.4433   15.8576   30.4677 C   0  0  2  0  0  0  0  0  0  0  0  0
   59.0535   15.4523   30.9256 C   0  0  0  0  0  0  0  0  0  0  0  0
   59.0864   13.9904   31.8518 S   0  0  0  0  0  0  0  0  0  0  0  0
   57.7269   13.7388   33.0589 C   0  0  0  0  0  0  0  0  0  0  0  0
   56.6328   14.6160   32.4986 C   0  0  0  0  0  0  0  0  0  0  0  0
   55.8376   15.2694   32.0945 C   0  0  0  0  0  0  0  0  0  0  0  0
   62.0780   17.8904   28.1433 C   0  0  0  0  0  0  0  0  0  0  0  0
   61.0168   18.3255   27.2442 C   0  0  0  0  0  0  0  0  0  0  0  0
   60.4395   17.6064   26.2388 C   0  0  0  0  0  0  0  0  0  0  0  0
   60.6764   16.4088   25.6745 N   0  0  0  0  0  0  0  0  0  0  0  0
   60.2542   19.4674   27.4219 C   0  0  0  0  0  0  0  0  0  0  0  0
   59.2315   19.4510   26.5743 N   0  0  0  0  0  0  0  0  0  0  0  0
   59.2915   18.3188   25.8540 C   0  0  0  0  0  0  0  0  0  0  0  0
   58.4480   17.7416   24.9393 C   0  0  0  0  0  0  0  0  0  0  0  0
   57.0765   18.2215   24.8921 N   0  0  0  0  0  0  0  0  0  0  0  0
   58.7136   16.5412   24.3840 N   0  0  0  0  0  0  0  0  0  0  0  0
   59.8380   15.8912   24.7698 C   0  0  0  0  0  0  0  0  0  0  0  0
  2  1  1  1
  2  3  1  0
  2  6  1  0
  3  4  1  0
  4  5  1  0
  4 12  1  6
  5  6  1  0
  6  7  1  1
  7  8  1  0
  8  9  1  0
  9 10  1  0
 10 11  3  0
 12 13  1  0
 13 14  1  0
 13 16  2  0
 14 15  2  0
 14 18  1  0
 15 22  1  0
 16 17  1  0
 17 18  1  0
 18 19  2  0
 19 20  1  0
 19 21  1  0
 21 22  2  0
M  CHG  1   4   1
M  END
$$$$
