
     RDKit          3D

 22 24  0  0  0  0  0  0  0  0999 V2000
   63.6861   16.1474   32.3357 O   0  0  0  0  0  0  0  0  0  0  0  0
   62.7901   16.9711   31.7174 C   0  0  1  0  0  0  0  0  0  0  0  0
   63.2187   17.3090   30.2893 C   0  0  0  0  0  0  0  0  0  0  0  0
   62.0721   17.0818   29.4181 N   0  0  1  0  0  4  0  0  0  0  0  0
   60.9088   17.2365   30.3562 C   0  0  0  0  0  0  0  0  0  0  0  0
   61.4292   16.4521   31.5093 C   0  0  2  0  0  0  0  0  0  0  0  0
   60.4944   16.4333   32.7057 C   0  0  0  0  0  0  0  0  0  0  0  0
   59.1070   15.4393   32.4176 S   0  0  0  0  0  0  0  0  0  0  0  0
   59.3597   13.6221   32.4684 C   0  0  0  0  0  0  0  0  0  0  0  0
   57.9711   13.0964   32.1927 C   0  0  0  0  0  0  0  0  0  0  0  0
   56.9553   12.7163   31.9778 C   0  0  0  0  0  0  0  0  0  0  0  0
   61.9379   18.0708   28.4550 C   0  0  0  0  0  0  0  0  0  0  0  0
   60.7112   18.3055   27.7039 C   0  0  0  0  0  0  0  0  0  0  0  0
   60.3646   17.7676   26.4992 C   0  0  0  0  0  0  0  0  0  0  0  0
   60.9915   17.0015   25.5886 N   0  0  0  0  0  0  0  0  0  0  0  0
   59.5871   18.9352   28.2106 C   0  0  0  0  0  0  0  0  0  0  0  0
   58.5750   18.7791   27.3644 N   0  0  0  0  0  0  0  0  0  0  0  0
   58.9997   18.0480   26.3206 C   0  0  0  0  0  0  0  0  0  0  0  0
   58.3626   17.4991   25.2371 C   0  0  0  0  0  0  0  0  0  0  0  0
   56.9143   17.3853   25.2944 N   0  0  0  0  0  0  0  0  0  0  0  0
   59.0178   16.7392   24.3353 N   0  0  0  0  0  0  0  0  0  0  0  0
   60.3369   16.5029   24.5340 C   0  0  0  0  0  0  0  0  0  0  0  0
  2  1  1  6
  2  3  1  0
  2  6  1  0
  3  4  1  0
  4  5  1  0
  4 12  1  6
  5  6  1  0
  6  7  1  1
  7  8  1  0
  8  9  1  0
  9 10  1  0
 10 11  3  0
 12 13  1  0
 13 14  1  0
 13 16  2  0
 14 15  2  0
 14 18  1  0
 15 22  1  0
 16 17  1  0
 17 18  1  0
 18 19  2  0
 19 20  1  0
 19 21  1  0
 21 22  2  0
M  CHG  1   4   1
M  END
$$$$
