
     RDKit          3D

 22 24  0  0  0  0  0  0  0  0999 V2000
   63.6201   18.8471   30.6003 O   0  0  0  0  0  0  0  0  0  0  0  0
   62.3984   18.2512   30.4743 C   0  0  1  0  0  0  0  0  0  0  0  0
   62.3775   17.2301   29.3367 C   0  0  0  0  0  0  0  0  0  0  0  0
   61.7954   15.9993   29.8578 N   0  0  1  0  0  4  0  0  0  0  0  0
   60.9552   16.4903   31.0025 C   0  0  0  0  0  0  0  0  0  0  0  0
   61.9197   17.4475   31.6100 C   0  0  2  0  0  0  0  0  0  0  0  0
   61.3656   18.1913   32.8122 C   0  0  0  0  0  0  0  0  0  0  0  0
   60.7577   17.1029   34.0130 S   0  0  0  0  0  0  0  0  0  0  0  0
   58.9344   16.9973   34.1944 C   0  0  0  0  0  0  0  0  0  0  0  0
   58.7004   15.5058   34.2287 C   0  0  0  0  0  0  0  0  0  0  0  0
   58.5388   14.4125   34.2638 C   0  0  0  0  0  0  0  0  0  0  0  0
   60.9261   15.4042   28.9557 C   0  0  0  0  0  0  0  0  0  0  0  0
   60.5394   16.0092   27.6875 C   0  0  0  0  0  0  0  0  0  0  0  0
   59.9902   17.2430   27.4944 C   0  0  0  0  0  0  0  0  0  0  0  0
   59.5349   18.2144   28.3057 N   0  0  0  0  0  0  0  0  0  0  0  0
   60.8895   15.5166   26.4419 C   0  0  0  0  0  0  0  0  0  0  0  0
   60.5884   16.4157   25.5115 N   0  0  0  0  0  0  0  0  0  0  0  0
   60.0640   17.4955   26.1145 C   0  0  0  0  0  0  0  0  0  0  0  0
   59.6949   18.7368   25.6630 C   0  0  0  0  0  0  0  0  0  0  0  0
   60.1965   19.1575   24.3648 N   0  0  0  0  0  0  0  0  0  0  0  0
   59.2352   19.6910   26.4987 N   0  0  0  0  0  0  0  0  0  0  0  0
   59.1650   19.4050   27.8211 C   0  0  0  0  0  0  0  0  0  0  0  0
  2  1  1  1
  2  3  1  0
  2  6  1  0
  3  4  1  0
  4  5  1  0
  4 12  1  6
  5  6  1  0
  6  7  1  1
  7  8  1  0
  8  9  1  0
  9 10  1  0
 10 11  3  0
 12 13  1  0
 13 14  1  0
 13 16  2  0
 14 15  2  0
 14 18  1  0
 15 22  1  0
 16 17  1  0
 17 18  1  0
 18 19  2  0
 19 20  1  0
 19 21  1  0
 21 22  2  0
M  CHG  1   4   1
M  END
$$$$
