
     RDKit          3D

 22 24  0  0  0  0  0  0  0  0999 V2000
   62.1298   17.8440   33.1154 O   0  0  0  0  0  0  0  0  0  0  0  0
   61.5627   17.7180   31.8800 C   0  0  1  0  0  0  0  0  0  0  0  0
   62.6096   17.7540   30.7666 C   0  0  0  0  0  0  0  0  0  0  0  0
   62.3544   16.6228   29.8829 N   0  0  1  0  0  4  0  0  0  0  0  0
   60.8927   16.3544   30.1041 C   0  0  0  0  0  0  0  0  0  0  0  0
   60.8546   16.4617   31.5881 C   0  0  2  0  0  0  0  0  0  0  0  0
   59.4662   16.2852   32.1770 C   0  0  0  0  0  0  0  0  0  0  0  0
   58.5460   15.1081   31.3032 S   0  0  0  0  0  0  0  0  0  0  0  0
   57.7745   13.7606   32.2818 C   0  0  0  0  0  0  0  0  0  0  0  0
   58.9764   12.9802   32.7581 C   0  0  0  0  0  0  0  0  0  0  0  0
   59.8635   12.4208   33.1083 C   0  0  0  0  0  0  0  0  0  0  0  0
   62.4972   16.9570   28.5444 C   0  0  0  0  0  0  0  0  0  0  0  0
   61.4029   16.9239   27.5825 C   0  0  0  0  0  0  0  0  0  0  0  0
   60.5812   17.9544   27.2306 C   0  0  0  0  0  0  0  0  0  0  0  0
   60.4020   19.2141   27.6666 N   0  0  0  0  0  0  0  0  0  0  0  0
   61.1716   15.8915   26.6895 C   0  0  0  0  0  0  0  0  0  0  0  0
   60.2563   16.2707   25.8045 N   0  0  0  0  0  0  0  0  0  0  0  0
   59.8909   17.5332   26.0819 C   0  0  0  0  0  0  0  0  0  0  0  0
   59.0873   18.4409   25.4404 C   0  0  0  0  0  0  0  0  0  0  0  0
   58.7597   18.1835   24.0475 N   0  0  0  0  0  0  0  0  0  0  0  0
   58.9206   19.6969   25.9038 N   0  0  0  0  0  0  0  0  0  0  0  0
   59.5920   20.0616   27.0226 C   0  0  0  0  0  0  0  0  0  0  0  0
  2  1  1  1
  2  3  1  0
  2  6  1  0
  3  4  1  0
  4  5  1  0
  4 12  1  6
  5  6  1  0
  6  7  1  6
  7  8  1  0
  8  9  1  0
  9 10  1  0
 10 11  3  0
 12 13  1  0
 13 14  1  0
 13 16  2  0
 14 15  2  0
 14 18  1  0
 15 22  1  0
 16 17  1  0
 17 18  1  0
 18 19  2  0
 19 20  1  0
 19 21  1  0
 21 22  2  0
M  CHG  1   4   1
M  END
$$$$
