
     RDKit          3D

 22 24  0  0  0  0  0  0  0  0999 V2000
   62.7312   17.5225   33.2434 O   0  0  0  0  0  0  0  0  0  0  0  0
   61.9705   17.5019   32.1100 C   0  0  1  0  0  0  0  0  0  0  0  0
   62.7696   17.9324   30.8799 C   0  0  0  0  0  0  0  0  0  0  0  0
   62.5407   16.9420   29.8349 N   0  0  1  0  0  4  0  0  0  0  0  0
   61.2101   16.3590   30.2184 C   0  0  0  0  0  0  0  0  0  0  0  0
   61.4344   16.2005   31.6813 C   0  0  2  0  0  0  0  0  0  0  0  0
   60.2288   15.6575   32.4279 C   0  0  0  0  0  0  0  0  0  0  0  0
   59.1189   16.9163   32.8515 S   0  0  0  0  0  0  0  0  0  0  0  0
   57.4979   16.4000   33.5403 C   0  0  0  0  0  0  0  0  0  0  0  0
   57.4950   14.9131   33.2762 C   0  0  0  0  0  0  0  0  0  0  0  0
   57.5068   13.8243   33.0842 C   0  0  0  0  0  0  0  0  0  0  0  0
   62.3733   17.5222   28.5863 C   0  0  0  0  0  0  0  0  0  0  0  0
   61.2523   17.2280   27.7028 C   0  0  0  0  0  0  0  0  0  0  0  0
   60.2311   18.0641   27.3578 C   0  0  0  0  0  0  0  0  0  0  0  0
   59.8407   19.2918   27.7442 N   0  0  0  0  0  0  0  0  0  0  0  0
   61.1712   16.1192   26.8777 C   0  0  0  0  0  0  0  0  0  0  0  0
   60.1517   16.2672   26.0389 N   0  0  0  0  0  0  0  0  0  0  0  0
   59.5693   17.4536   26.2795 C   0  0  0  0  0  0  0  0  0  0  0  0
   58.5726   18.1553   25.6507 C   0  0  0  0  0  0  0  0  0  0  0  0
   58.2212   17.7586   24.2969 N   0  0  0  0  0  0  0  0  0  0  0  0
   58.1968   19.3835   26.0636 N   0  0  0  0  0  0  0  0  0  0  0  0
   58.8491   19.9332   27.1161 C   0  0  0  0  0  0  0  0  0  0  0  0
  2  1  1  1
  2  3  1  0
  2  6  1  0
  3  4  1  0
  4  5  1  0
  4 12  1  6
  5  6  1  0
  6  7  1  1
  7  8  1  0
  8  9  1  0
  9 10  1  0
 10 11  3  0
 12 13  1  0
 13 14  1  0
 13 16  2  0
 14 15  2  0
 14 18  1  0
 15 22  1  0
 16 17  1  0
 17 18  1  0
 18 19  2  0
 19 20  1  0
 19 21  1  0
 21 22  2  0
M  CHG  1   4   1
M  END
$$$$
