
     RDKit          3D

 22 24  0  0  0  0  0  0  0  0999 V2000
   61.4866   13.8069   28.5155 O   0  0  0  0  0  0  0  0  0  0  0  0
   61.3630   15.0695   29.0198 C   0  0  1  0  0  0  0  0  0  0  0  0
   61.7664   16.1327   27.9980 C   0  0  0  0  0  0  0  0  0  0  0  0
   60.7088   17.1355   27.9625 N   0  0  1  0  0  4  0  0  0  0  0  0
   60.0785   16.9989   29.3194 C   0  0  0  0  0  0  0  0  0  0  0  0
   60.0134   15.5141   29.4013 C   0  0  2  0  0  0  0  0  0  0  0  0
   59.4496   14.9997   30.7140 C   0  0  0  0  0  0  0  0  0  0  0  0
   60.1178   15.8420   32.0705 S   0  0  0  0  0  0  0  0  0  0  0  0
   59.8936   15.0719   33.7214 C   0  0  0  0  0  0  0  0  0  0  0  0
   58.4351   14.6809   33.6986 C   0  0  0  0  0  0  0  0  0  0  0  0
   57.3690   14.3893   33.6691 C   0  0  0  0  0  0  0  0  0  0  0  0
   61.2094   18.4268   27.8870 C   0  0  0  0  0  0  0  0  0  0  0  0
   60.4364   19.5659   27.4086 C   0  0  0  0  0  0  0  0  0  0  0  0
   59.7143   19.6477   26.2541 C   0  0  0  0  0  0  0  0  0  0  0  0
   59.5513   18.8537   25.1808 N   0  0  0  0  0  0  0  0  0  0  0  0
   60.1164   20.6758   28.1720 C   0  0  0  0  0  0  0  0  0  0  0  0
   59.2162   21.4098   27.5274 N   0  0  0  0  0  0  0  0  0  0  0  0
   58.9224   20.8026   26.3657 C   0  0  0  0  0  0  0  0  0  0  0  0
   57.9957   21.0493   25.3851 C   0  0  0  0  0  0  0  0  0  0  0  0
   56.8894   21.9342   25.7118 N   0  0  0  0  0  0  0  0  0  0  0  0
   57.8579   20.2389   24.3154 N   0  0  0  0  0  0  0  0  0  0  0  0
   58.6497   19.1424   24.2358 C   0  0  0  0  0  0  0  0  0  0  0  0
  2  1  1  6
  2  3  1  0
  2  6  1  0
  3  4  1  0
  4  5  1  0
  4 12  1  1
  5  6  1  0
  6  7  1  1
  7  8  1  0
  8  9  1  0
  9 10  1  0
 10 11  3  0
 12 13  1  0
 13 14  1  0
 13 16  2  0
 14 15  2  0
 14 18  1  0
 15 22  1  0
 16 17  1  0
 17 18  1  0
 18 19  2  0
 19 20  1  0
 19 21  1  0
 21 22  2  0
M  CHG  1   4   1
M  END
$$$$
