
     RDKit          3D

 22 24  0  0  0  0  0  0  0  0999 V2000
   61.8084   18.2465   32.1040 O   0  0  0  0  0  0  0  0  0  0  0  0
   61.1516   17.7704   31.0060 C   0  0  1  0  0  0  0  0  0  0  0  0
   62.1010   17.5391   29.8303 C   0  0  0  0  0  0  0  0  0  0  0  0
   61.8419   16.2025   29.3090 N   0  0  1  0  0  4  0  0  0  0  0  0
   60.4212   15.9537   29.7299 C   0  0  0  0  0  0  0  0  0  0  0  0
   60.4971   16.4583   31.1281 C   0  0  2  0  0  0  0  0  0  0  0  0
   59.1736   16.4003   31.8702 C   0  0  0  0  0  0  0  0  0  0  0  0
   57.9320   15.6741   30.9074 S   0  0  0  0  0  0  0  0  0  0  0  0
   57.4878   13.9359   31.2947 C   0  0  0  0  0  0  0  0  0  0  0  0
   58.2640   13.6808   32.5648 C   0  0  0  0  0  0  0  0  0  0  0  0
   58.8410   13.4858   33.4875 C   0  0  0  0  0  0  0  0  0  0  0  0
   61.8560   16.1655   27.9226 C   0  0  0  0  0  0  0  0  0  0  0  0
   61.2563   17.1932   27.0812 C   0  0  0  0  0  0  0  0  0  0  0  0
   60.0949   17.1051   26.3709 C   0  0  0  0  0  0  0  0  0  0  0  0
   59.2205   16.1186   26.1043 N   0  0  0  0  0  0  0  0  0  0  0  0
   61.6528   18.5195   27.0562 C   0  0  0  0  0  0  0  0  0  0  0  0
   60.7637   19.2328   26.3740 N   0  0  0  0  0  0  0  0  0  0  0  0
   59.7824   18.4126   25.9630 C   0  0  0  0  0  0  0  0  0  0  0  0
   58.5810   18.6254   25.3366 C   0  0  0  0  0  0  0  0  0  0  0  0
   58.0511   19.9793   25.3394 N   0  0  0  0  0  0  0  0  0  0  0  0
   57.7251   17.6157   25.0758 N   0  0  0  0  0  0  0  0  0  0  0  0
   58.0681   16.3663   25.4718 C   0  0  0  0  0  0  0  0  0  0  0  0
  2  1  1  1
  2  3  1  0
  2  6  1  0
  3  4  1  0
  4  5  1  0
  4 12  1  6
  5  6  1  0
  6  7  1  6
  7  8  1  0
  8  9  1  0
  9 10  1  0
 10 11  3  0
 12 13  1  0
 13 14  1  0
 13 16  2  0
 14 15  2  0
 14 18  1  0
 15 22  1  0
 16 17  1  0
 17 18  1  0
 18 19  2  0
 19 20  1  0
 19 21  1  0
 21 22  2  0
M  CHG  1   4   1
M  END
$$$$
