
     RDKit          3D

 22 24  0  0  0  0  0  0  0  0999 V2000
   63.6242   16.5201   32.6983 O   0  0  0  0  0  0  0  0  0  0  0  0
   62.5130   16.8656   31.9844 C   0  0  1  0  0  0  0  0  0  0  0  0
   62.8201   17.9335   30.9344 C   0  0  0  0  0  0  0  0  0  0  0  0
   62.2528   17.4849   29.6686 N   0  0  1  0  0  4  0  0  0  0  0  0
   61.1523   16.5615   30.1087 C   0  0  0  0  0  0  0  0  0  0  0  0
   61.8806   15.8154   31.1709 C   0  0  2  0  0  0  0  0  0  0  0  0
   61.0245   14.7891   31.8916 C   0  0  0  0  0  0  0  0  0  0  0  0
   59.9334   13.9930   30.8091 S   0  0  0  0  0  0  0  0  0  0  0  0
   58.1491   14.0486   31.2355 C   0  0  0  0  0  0  0  0  0  0  0  0
   58.1792   14.0547   32.7453 C   0  0  0  0  0  0  0  0  0  0  0  0
   58.1880   14.0637   33.8509 C   0  0  0  0  0  0  0  0  0  0  0  0
   61.6468   18.5168   28.9675 C   0  0  0  0  0  0  0  0  0  0  0  0
   60.3612   18.3891   28.2931 C   0  0  0  0  0  0  0  0  0  0  0  0
   60.1236   18.4437   26.9508 C   0  0  0  0  0  0  0  0  0  0  0  0
   60.8702   18.7231   25.8676 N   0  0  0  0  0  0  0  0  0  0  0  0
   59.1954   17.9516   28.8985 C   0  0  0  0  0  0  0  0  0  0  0  0
   58.2742   17.7240   27.9688 N   0  0  0  0  0  0  0  0  0  0  0  0
   58.8091   17.9845   26.7644 C   0  0  0  0  0  0  0  0  0  0  0  0
   58.3592   17.8137   25.4801 C   0  0  0  0  0  0  0  0  0  0  0  0
   57.2268   16.9250   25.2762 N   0  0  0  0  0  0  0  0  0  0  0  0
   59.1278   18.1082   24.4111 N   0  0  0  0  0  0  0  0  0  0  0  0
   60.3851   18.5623   24.6314 C   0  0  0  0  0  0  0  0  0  0  0  0
  2  1  1  6
  2  3  1  0
  2  6  1  0
  3  4  1  0
  4  5  1  0
  4 12  1  1
  5  6  1  0
  6  7  1  1
  7  8  1  0
  8  9  1  0
  9 10  1  0
 10 11  3  0
 12 13  1  0
 13 14  1  0
 13 16  2  0
 14 15  2  0
 14 18  1  0
 15 22  1  0
 16 17  1  0
 17 18  1  0
 18 19  2  0
 19 20  1  0
 19 21  1  0
 21 22  2  0
M  CHG  1   4   1
M  END
$$$$
