
     RDKit          3D

 22 24  0  0  0  0  0  0  0  0999 V2000
   62.0261   18.3405   31.9983 O   0  0  0  0  0  0  0  0  0  0  0  0
   61.3562   17.8290   30.9244 C   0  0  1  0  0  0  0  0  0  0  0  0
   62.3122   17.3600   29.8276 C   0  0  0  0  0  0  0  0  0  0  0  0
   61.9096   16.0148   29.4355 N   0  0  1  0  0  4  0  0  0  0  0  0
   60.4546   15.9836   29.8089 C   0  0  0  0  0  0  0  0  0  0  0  0
   60.5409   16.6250   31.1494 C   0  0  2  0  0  0  0  0  0  0  0  0
   59.1941   16.8056   31.8270 C   0  0  0  0  0  0  0  0  0  0  0  0
   58.1859   15.4129   31.6271 S   0  0  0  0  0  0  0  0  0  0  0  0
   58.4358   14.0281   32.8055 C   0  0  0  0  0  0  0  0  0  0  0  0
   58.4726   14.7409   34.1364 C   0  0  0  0  0  0  0  0  0  0  0  0
   58.5125   15.2670   35.1081 C   0  0  0  0  0  0  0  0  0  0  0  0
   61.9698   15.8257   28.0628 C   0  0  0  0  0  0  0  0  0  0  0  0
   61.4069   16.7573   27.0937 C   0  0  0  0  0  0  0  0  0  0  0  0
   60.1575   16.7255   26.5468 C   0  0  0  0  0  0  0  0  0  0  0  0
   59.1270   15.8622   26.5889 N   0  0  0  0  0  0  0  0  0  0  0  0
   61.9751   17.9717   26.7482 C   0  0  0  0  0  0  0  0  0  0  0  0
   61.1071   18.6766   26.0310 N   0  0  0  0  0  0  0  0  0  0  0  0
   59.9748   17.9640   25.9095 C   0  0  0  0  0  0  0  0  0  0  0  0
   58.7392   18.2461   25.3852 C   0  0  0  0  0  0  0  0  0  0  0  0
   58.4065   19.6435   25.1605 N   0  0  0  0  0  0  0  0  0  0  0  0
   57.7246   17.3585   25.4358 N   0  0  0  0  0  0  0  0  0  0  0  0
   57.9436   16.1689   26.0461 C   0  0  0  0  0  0  0  0  0  0  0  0
  2  1  1  1
  2  3  1  0
  2  6  1  0
  3  4  1  0
  4  5  1  0
  4 12  1  6
  5  6  1  0
  6  7  1  6
  7  8  1  0
  8  9  1  0
  9 10  1  0
 10 11  3  0
 12 13  1  0
 13 14  1  0
 13 16  2  0
 14 15  2  0
 14 18  1  0
 15 22  1  0
 16 17  1  0
 17 18  1  0
 18 19  2  0
 19 20  1  0
 19 21  1  0
 21 22  2  0
M  CHG  1   4   1
M  END
$$$$
