
     RDKit          3D

 22 24  0  0  0  0  0  0  0  0999 V2000
   62.0622   16.9381   32.9415 O   0  0  0  0  0  0  0  0  0  0  0  0
   61.2998   17.1079   31.8219 C   0  0  1  0  0  0  0  0  0  0  0  0
   62.0975   17.7376   30.6799 C   0  0  0  0  0  0  0  0  0  0  0  0
   61.8661   16.9362   29.4843 N   0  0  1  0  0  4  0  0  0  0  0  0
   60.5355   16.2981   29.7670 C   0  0  0  0  0  0  0  0  0  0  0  0
   60.7618   15.8969   31.1824 C   0  0  2  0  0  0  0  0  0  0  0  0
   59.5568   15.2376   31.8296 C   0  0  0  0  0  0  0  0  0  0  0  0
   60.0087   14.2900   33.2058 S   0  0  0  0  0  0  0  0  0  0  0  0
   58.6524   13.4824   34.1422 C   0  0  0  0  0  0  0  0  0  0  0  0
   57.8398   14.6642   34.6150 C   0  0  0  0  0  0  0  0  0  0  0  0
   57.2350   15.5207   34.9658 C   0  0  0  0  0  0  0  0  0  0  0  0
   61.6974   17.7172   28.3507 C   0  0  0  0  0  0  0  0  0  0  0  0
   60.7882   17.3773   27.2636 C   0  0  0  0  0  0  0  0  0  0  0  0
   60.0033   18.2314   26.5456 C   0  0  0  0  0  0  0  0  0  0  0  0
   59.7059   19.5404   26.6288 N   0  0  0  0  0  0  0  0  0  0  0  0
   60.7526   16.1506   26.6225 C   0  0  0  0  0  0  0  0  0  0  0  0
   59.9915   16.2419   25.5376 N   0  0  0  0  0  0  0  0  0  0  0  0
   59.5382   17.5025   25.4385 C   0  0  0  0  0  0  0  0  0  0  0  0
   58.8257   18.1715   24.4762 C   0  0  0  0  0  0  0  0  0  0  0  0
   58.7539   17.5723   23.1535 N   0  0  0  0  0  0  0  0  0  0  0  0
   58.5360   19.4843   24.5883 N   0  0  0  0  0  0  0  0  0  0  0  0
   58.9897   20.1500   25.6776 C   0  0  0  0  0  0  0  0  0  0  0  0
  2  1  1  1
  2  3  1  0
  2  6  1  0
  3  4  1  0
  4  5  1  0
  4 12  1  6
  5  6  1  0
  6  7  1  1
  7  8  1  0
  8  9  1  0
  9 10  1  0
 10 11  3  0
 12 13  1  0
 13 14  1  0
 13 16  2  0
 14 15  2  0
 14 18  1  0
 15 22  1  0
 16 17  1  0
 17 18  1  0
 18 19  2  0
 19 20  1  0
 19 21  1  0
 21 22  2  0
M  CHG  1   4   1
M  END
$$$$
