
     RDKit          3D

 22 24  0  0  0  0  0  0  0  0999 V2000
   61.5314   17.3459   32.8091 O   0  0  0  0  0  0  0  0  0  0  0  0
   61.0558   17.4461   31.5334 C   0  0  1  0  0  0  0  0  0  0  0  0
   62.1844   17.6197   30.5170 C   0  0  0  0  0  0  0  0  0  0  0  0
   61.9638   16.6590   29.4429 N   0  0  1  0  0  4  0  0  0  0  0  0
   60.4823   16.4186   29.5141 C   0  0  0  0  0  0  0  0  0  0  0  0
   60.3354   16.2845   30.9891 C   0  0  2  0  0  0  0  0  0  0  0  0
   58.9018   16.0719   31.4424 C   0  0  0  0  0  0  0  0  0  0  0  0
   58.2078   14.6573   30.7262 S   0  0  0  0  0  0  0  0  0  0  0  0
   58.0180   13.1852   31.8058 C   0  0  0  0  0  0  0  0  0  0  0  0
   57.5213   13.7939   33.0955 C   0  0  0  0  0  0  0  0  0  0  0  0
   57.1461   14.2439   34.0332 C   0  0  0  0  0  0  0  0  0  0  0  0
   62.2170   17.2003   28.1913 C   0  0  0  0  0  0  0  0  0  0  0  0
   61.2182   17.9077   27.4001 C   0  0  0  0  0  0  0  0  0  0  0  0
   60.4709   17.4071   26.3745 C   0  0  0  0  0  0  0  0  0  0  0  0
   60.4513   16.2460   25.6960 N   0  0  0  0  0  0  0  0  0  0  0  0
   60.6944   19.1483   27.7219 C   0  0  0  0  0  0  0  0  0  0  0  0
   59.6502   19.4022   26.9409 N   0  0  0  0  0  0  0  0  0  0  0  0
   59.4625   18.3525   26.1238 C   0  0  0  0  0  0  0  0  0  0  0  0
   58.4850   18.0312   25.2170 C   0  0  0  0  0  0  0  0  0  0  0  0
   57.2284   18.7581   25.2960 N   0  0  0  0  0  0  0  0  0  0  0  0
   58.4934   16.8611   24.5455 N   0  0  0  0  0  0  0  0  0  0  0  0
   59.4904   15.9810   24.8040 C   0  0  0  0  0  0  0  0  0  0  0  0
  2  1  1  1
  2  3  1  0
  2  6  1  0
  3  4  1  0
  4  5  1  0
  4 12  1  6
  5  6  1  0
  6  7  1  6
  7  8  1  0
  8  9  1  0
  9 10  1  0
 10 11  3  0
 12 13  1  0
 13 14  1  0
 13 16  2  0
 14 15  2  0
 14 18  1  0
 15 22  1  0
 16 17  1  0
 17 18  1  0
 18 19  2  0
 19 20  1  0
 19 21  1  0
 21 22  2  0
M  CHG  1   4   1
M  END
$$$$
