
     RDKit          3D

 22 24  0  0  0  0  0  0  0  0999 V2000
   62.7926   17.4369   33.1723 O   0  0  0  0  0  0  0  0  0  0  0  0
   61.7815   17.3803   32.2568 C   0  0  1  0  0  0  0  0  0  0  0  0
   62.0114   18.3458   31.0940 C   0  0  0  0  0  0  0  0  0  0  0  0
   61.8102   17.6028   29.8559 N   0  0  1  0  0  4  0  0  0  0  0  0
   60.9011   16.4861   30.2850 C   0  0  0  0  0  0  0  0  0  0  0  0
   61.5792   16.1038   31.5537 C   0  0  2  0  0  0  0  0  0  0  0  0
   60.8762   14.9899   32.3093 C   0  0  0  0  0  0  0  0  0  0  0  0
   59.2083   14.8683   31.8632 S   0  0  0  0  0  0  0  0  0  0  0  0
   58.0640   14.1520   33.1067 C   0  0  0  0  0  0  0  0  0  0  0  0
   58.4219   14.9230   34.3549 C   0  0  0  0  0  0  0  0  0  0  0  0
   58.6919   15.4959   35.2612 C   0  0  0  0  0  0  0  0  0  0  0  0
   61.1140   18.3374   28.9076 C   0  0  0  0  0  0  0  0  0  0  0  0
   60.4091   17.7396   27.7808 C   0  0  0  0  0  0  0  0  0  0  0  0
   59.6836   18.3862   26.8234 C   0  0  0  0  0  0  0  0  0  0  0  0
   59.2831   19.6563   26.6353 N   0  0  0  0  0  0  0  0  0  0  0  0
   60.5609   16.4279   27.3644 C   0  0  0  0  0  0  0  0  0  0  0  0
   59.9704   16.2684   26.1852 N   0  0  0  0  0  0  0  0  0  0  0  0
   59.4475   17.4464   25.8063 C   0  0  0  0  0  0  0  0  0  0  0  0
   58.8443   17.8787   24.6529 C   0  0  0  0  0  0  0  0  0  0  0  0
   59.0195   17.0697   23.4577 N   0  0  0  0  0  0  0  0  0  0  0  0
   58.4466   19.1580   24.4935 N   0  0  0  0  0  0  0  0  0  0  0  0
   58.6788   20.0317   25.5026 C   0  0  0  0  0  0  0  0  0  0  0  0
  2  1  1  1
  2  3  1  0
  2  6  1  0
  3  4  1  0
  4  5  1  0
  4 12  1  6
  5  6  1  0
  6  7  1  1
  7  8  1  0
  8  9  1  0
  9 10  1  0
 10 11  3  0
 12 13  1  0
 13 14  1  0
 13 16  2  0
 14 15  2  0
 14 18  1  0
 15 22  1  0
 16 17  1  0
 17 18  1  0
 18 19  2  0
 19 20  1  0
 19 21  1  0
 21 22  2  0
M  CHG  1   4   1
M  END
$$$$
