
     RDKit          3D

 22 24  0  0  0  0  0  0  0  0999 V2000
   63.0486   18.8668   31.0116 O   0  0  0  0  0  0  0  0  0  0  0  0
   61.9759   18.1522   30.5616 C   0  0  1  0  0  0  0  0  0  0  0  0
   62.3634   17.1900   29.4386 C   0  0  0  0  0  0  0  0  0  0  0  0
   61.8116   15.8813   29.7676 N   0  0  1  0  0  4  0  0  0  0  0  0
   60.6561   16.2261   30.6640 C   0  0  0  0  0  0  0  0  0  0  0  0
   61.3174   17.2496   31.5188 C   0  0  2  0  0  0  0  0  0  0  0  0
   60.3931   17.8728   32.5497 C   0  0  0  0  0  0  0  0  0  0  0  0
   59.9457   16.7372   33.7769 S   0  0  0  0  0  0  0  0  0  0  0  0
   58.1637   16.3200   33.9156 C   0  0  0  0  0  0  0  0  0  0  0  0
   58.2040   14.9226   34.4867 C   0  0  0  0  0  0  0  0  0  0  0  0
   58.2211   13.9017   34.9110 C   0  0  0  0  0  0  0  0  0  0  0  0
   61.2757   15.2416   28.6598 C   0  0  0  0  0  0  0  0  0  0  0  0
   60.7947   15.9430   27.4763 C   0  0  0  0  0  0  0  0  0  0  0  0
   59.8435   16.9195   27.4245 C   0  0  0  0  0  0  0  0  0  0  0  0
   58.9960   17.4642   28.3157 N   0  0  0  0  0  0  0  0  0  0  0  0
   61.4016   15.8952   26.2328 C   0  0  0  0  0  0  0  0  0  0  0  0
   60.8633   16.8184   25.4436 N   0  0  0  0  0  0  0  0  0  0  0  0
   59.9284   17.4845   26.1412 C   0  0  0  0  0  0  0  0  0  0  0  0
   59.1615   18.5883   25.8680 C   0  0  0  0  0  0  0  0  0  0  0  0
   59.5730   19.4366   24.7613 N   0  0  0  0  0  0  0  0  0  0  0  0
   58.3146   19.1104   26.7792 N   0  0  0  0  0  0  0  0  0  0  0  0
   58.2500   18.5289   28.0011 C   0  0  0  0  0  0  0  0  0  0  0  0
  2  1  1  1
  2  3  1  0
  2  6  1  0
  3  4  1  0
  4  5  1  0
  4 12  1  6
  5  6  1  0
  6  7  1  6
  7  8  1  0
  8  9  1  0
  9 10  1  0
 10 11  3  0
 12 13  1  0
 13 14  1  0
 13 16  2  0
 14 15  2  0
 14 18  1  0
 15 22  1  0
 16 17  1  0
 17 18  1  0
 18 19  2  0
 19 20  1  0
 19 21  1  0
 21 22  2  0
M  CHG  1   4   1
M  END
$$$$
