
     RDKit          3D

 22 24  0  0  0  0  0  0  0  0999 V2000
   61.6081   18.6519   33.0260 O   0  0  0  0  0  0  0  0  0  0  0  0
   61.2472   18.0372   31.8616 C   0  0  1  0  0  0  0  0  0  0  0  0
   62.1102   18.4940   30.6853 C   0  0  0  0  0  0  0  0  0  0  0  0
   62.5735   17.3009   29.9872 N   0  0  1  0  0  4  0  0  0  0  0  0
   61.5269   16.2832   30.3426 C   0  0  0  0  0  0  0  0  0  0  0  0
   61.3975   16.5750   31.7964 C   0  0  2  0  0  0  0  0  0  0  0  0
   60.3488   15.7296   32.4972 C   0  0  0  0  0  0  0  0  0  0  0  0
   59.8219   14.4125   31.5054 S   0  0  0  0  0  0  0  0  0  0  0  0
   58.1356   14.5312   30.7906 C   0  0  0  0  0  0  0  0  0  0  0  0
   57.2725   14.6627   32.0227 C   0  0  0  0  0  0  0  0  0  0  0  0
   56.6463   14.7473   32.9301 C   0  0  0  0  0  0  0  0  0  0  0  0
   62.5313   17.4471   28.6086 C   0  0  0  0  0  0  0  0  0  0  0  0
   61.3458   17.1802   27.8041 C   0  0  0  0  0  0  0  0  0  0  0  0
   60.4180   18.0838   27.3753 C   0  0  0  0  0  0  0  0  0  0  0  0
   60.1948   19.3909   27.5999 N   0  0  0  0  0  0  0  0  0  0  0  0
   61.0965   15.9904   27.1414 C   0  0  0  0  0  0  0  0  0  0  0  0
   60.0666   16.1517   26.3180 N   0  0  0  0  0  0  0  0  0  0  0  0
   59.6416   17.4227   26.4091 C   0  0  0  0  0  0  0  0  0  0  0  0
   58.7098   18.1534   25.7170 C   0  0  0  0  0  0  0  0  0  0  0  0
   58.2549   17.6274   24.4402 N   0  0  0  0  0  0  0  0  0  0  0  0
   58.5022   19.4627   25.9674 N   0  0  0  0  0  0  0  0  0  0  0  0
   59.2608   20.0618   26.9167 C   0  0  0  0  0  0  0  0  0  0  0  0
  2  1  1  1
  2  3  1  0
  2  6  1  0
  3  4  1  0
  4  5  1  0
  4 12  1  6
  5  6  1  0
  6  7  1  6
  7  8  1  0
  8  9  1  0
  9 10  1  0
 10 11  3  0
 12 13  1  0
 13 14  1  0
 13 16  2  0
 14 15  2  0
 14 18  1  0
 15 22  1  0
 16 17  1  0
 17 18  1  0
 18 19  2  0
 19 20  1  0
 19 21  1  0
 21 22  2  0
M  CHG  1   4   1
M  END
$$$$
