
     RDKit          3D

 19 20  0  0  0  0  0  0  0  0999 V2000
    1.7003  -18.1260    7.9679 C   0  0  0  0  0  0  0  0  0  0  0  0
    0.7357  -18.0653    8.9698 C   0  0  0  0  0  0  0  0  0  0  0  0
    0.3152  -16.8524    9.4167 C   0  0  0  0  0  0  0  0  0  0  0  0
   -0.6502  -16.7548   10.4196 O   0  0  0  0  0  0  0  0  0  0  0  0
    0.8402  -15.6910    8.8818 C   0  0  0  0  0  0  0  0  0  0  0  0
    1.8083  -15.7914    7.8759 C   0  0  0  0  0  0  0  0  0  0  0  0
    2.2498  -16.9976    7.4071 C   0  0  0  0  0  0  0  0  0  0  0  0
    3.2666  -17.1437    6.3607 C   0  0  1  0  0  0  0  0  0  0  0  0
    2.8778  -16.7471    4.9834 C   0  0  1  0  0  0  0  0  0  0  0  0
    3.1867  -18.1275    3.8664 Cl  0  0  0  0  0  0  0  0  0  0  0  0
    1.2599  -16.1641    4.7383 Cl  0  0  0  0  0  0  0  0  0  0  0  0
    4.0478  -15.4785    4.4587 Cl  0  0  0  0  0  0  0  0  0  0  0  0
    4.5931  -16.6084    6.8094 C   0  0  0  0  0  0  0  0  0  0  0  0
    5.5968  -17.4667    7.2743 C   0  0  0  0  0  0  0  0  0  0  0  0
    6.8270  -17.0229    7.7034 C   0  0  0  0  0  0  0  0  0  0  0  0
    7.1182  -15.6768    7.6882 C   0  0  0  0  0  0  0  0  0  0  0  0
    8.3424  -15.1744    8.1094 O   0  0  0  0  0  0  0  0  0  0  0  0
    6.1529  -14.8063    7.2371 C   0  0  0  0  0  0  0  0  0  0  0  0
    4.9033  -15.2678    6.8023 C   0  0  0  0  0  0  0  0  0  0  0  0
  1  2  2  0
  1  7  1  0
  2  3  1  0
  3  4  1  0
  3  5  2  0
  5  6  1  0
  6  7  2  0
  8  7  1  1
  8  9  1  0
  8 13  1  0
  9 10  1  6
  9 11  1  0
  9 12  1  0
 13 14  2  0
 13 19  1  0
 14 15  1  0
 15 16  2  0
 16 17  1  0
 16 18  1  0
 18 19  2  0
M  END
$$$$
