
     RDKit          3D

 19 20  0  0  0  0  0  0  0  0999 V2000
    1.6559  -16.1075    8.1446 C   0  0  0  0  0  0  0  0  0  0  0  0
    0.6285  -15.9663    9.0732 C   0  0  0  0  0  0  0  0  0  0  0  0
   -0.1238  -17.0492    9.4037 C   0  0  0  0  0  0  0  0  0  0  0  0
   -1.1615  -16.9435   10.3308 O   0  0  0  0  0  0  0  0  0  0  0  0
    0.1289  -18.2780    8.8235 C   0  0  0  0  0  0  0  0  0  0  0  0
    1.1701  -18.3817    7.8939 C   0  0  0  0  0  0  0  0  0  0  0  0
    1.9429  -17.3096    7.5428 C   0  0  0  0  0  0  0  0  0  0  0  0
    3.0369  -17.3767    6.5687 C   0  0  1  0  0  0  0  0  0  0  0  0
    2.7311  -16.9442    5.1812 C   0  0  1  0  0  0  0  0  0  0  0  0
    4.1007  -15.9498    4.5615 Cl  0  0  0  0  0  0  0  0  0  0  0  0
    2.3469  -18.1763    4.0185 Cl  0  0  0  0  0  0  0  0  0  0  0  0
    1.3527  -15.7859    5.2906 Cl  0  0  0  0  0  0  0  0  0  0  0  0
    4.3046  -16.8074    7.1309 C   0  0  0  0  0  0  0  0  0  0  0  0
    4.6858  -15.4882    6.8574 C   0  0  0  0  0  0  0  0  0  0  0  0
    5.8428  -14.9231    7.3439 C   0  0  0  0  0  0  0  0  0  0  0  0
    6.6888  -15.6621    8.1410 C   0  0  0  0  0  0  0  0  0  0  0  0
    7.8680  -15.1425    8.6586 O   0  0  0  0  0  0  0  0  0  0  0  0
    6.3431  -16.9624    8.4286 C   0  0  0  0  0  0  0  0  0  0  0  0
    5.1631  -17.5288    7.9284 C   0  0  0  0  0  0  0  0  0  0  0  0
  1  2  2  0
  1  7  1  0
  2  3  1  0
  3  4  1  0
  3  5  2  0
  5  6  1  0
  6  7  2  0
  8  7  1  1
  8  9  1  0
  8 13  1  0
  9 10  1  6
  9 11  1  0
  9 12  1  0
 13 14  2  0
 13 19  1  0
 14 15  1  0
 15 16  2  0
 16 17  1  0
 16 18  1  0
 18 19  2  0
M  END
$$$$
