
     RDKit          3D

 19 20  0  0  0  0  0  0  0  0999 V2000
    4.6173  -18.1592    7.3584 C   0  0  0  0  0  0  0  0  0  0  0  0
    5.1647  -19.3884    7.7152 C   0  0  0  0  0  0  0  0  0  0  0  0
    5.5129  -20.2703    6.7412 C   0  0  0  0  0  0  0  0  0  0  0  0
    6.0642  -21.5111    7.0632 O   0  0  0  0  0  0  0  0  0  0  0  0
    5.3251  -19.9498    5.4098 C   0  0  0  0  0  0  0  0  0  0  0  0
    4.7720  -18.7047    5.0891 C   0  0  0  0  0  0  0  0  0  0  0  0
    4.4128  -17.7982    6.0478 C   0  0  0  0  0  0  0  0  0  0  0  0
    3.8244  -16.4880    5.7521 C   0  0  1  0  0  0  0  0  0  0  0  0
    2.3803  -16.3147    6.0524 C   0  0  1  0  0  0  0  0  0  0  0  0
    1.4611  -17.6817    5.3210 Cl  0  0  0  0  0  0  0  0  0  0  0  0
    1.9180  -16.1408    7.7179 Cl  0  0  0  0  0  0  0  0  0  0  0  0
    1.8294  -14.8641    5.1327 Cl  0  0  0  0  0  0  0  0  0  0  0  0
    4.6984  -15.3733    6.2430 C   0  0  0  0  0  0  0  0  0  0  0  0
    4.6441  -14.9485    7.5760 C   0  0  0  0  0  0  0  0  0  0  0  0
    5.4204  -13.9257    8.0719 C   0  0  0  0  0  0  0  0  0  0  0  0
    6.3035  -13.2671    7.2451 C   0  0  0  0  0  0  0  0  0  0  0  0
    7.1103  -12.2291    7.6923 O   0  0  0  0  0  0  0  0  0  0  0  0
    6.3810  -13.6605    5.9289 C   0  0  0  0  0  0  0  0  0  0  0  0
    5.5863  -14.7028    5.4335 C   0  0  0  0  0  0  0  0  0  0  0  0
  1  2  2  0
  1  7  1  0
  2  3  1  0
  3  4  1  0
  3  5  2  0
  5  6  1  0
  6  7  2  0
  8  7  1  1
  8  9  1  0
  8 13  1  0
  9 10  1  6
  9 11  1  0
  9 12  1  0
 13 14  2  0
 13 19  1  0
 14 15  1  0
 15 16  2  0
 16 17  1  0
 16 18  1  0
 18 19  2  0
M  END
$$$$
