
     RDKit          3D

 19 20  0  0  0  0  0  0  0  0999 V2000
    5.0022  -14.9902    7.1885 C   0  0  0  0  0  0  0  0  0  0  0  0
    6.2883  -15.0439    7.7186 C   0  0  0  0  0  0  0  0  0  0  0  0
    6.7963  -16.2413    8.1135 C   0  0  0  0  0  0  0  0  0  0  0  0
    8.0817  -16.3316    8.6491 O   0  0  0  0  0  0  0  0  0  0  0  0
    6.0433  -17.3939    7.9900 C   0  0  0  0  0  0  0  0  0  0  0  0
    4.7543  -17.3009    7.4525 C   0  0  0  0  0  0  0  0  0  0  0  0
    4.2180  -16.1103    7.0470 C   0  0  0  0  0  0  0  0  0  0  0  0
    2.8702  -15.9714    6.4863 C   0  0  1  0  0  0  0  0  0  0  0  0
    2.6642  -16.4587    5.0986 C   0  0  1  0  0  0  0  0  0  0  0  0
    1.3861  -15.4618    4.3106 Cl  0  0  0  0  0  0  0  0  0  0  0  0
    4.0521  -16.5368    4.0569 Cl  0  0  0  0  0  0  0  0  0  0  0  0
    1.9312  -18.1017    5.2290 Cl  0  0  0  0  0  0  0  0  0  0  0  0
    1.8237  -16.4178    7.4625 C   0  0  0  0  0  0  0  0  0  0  0  0
    0.4636  -16.2019    7.2100 C   0  0  0  0  0  0  0  0  0  0  0  0
   -0.5331  -16.5866    8.0779 C   0  0  0  0  0  0  0  0  0  0  0  0
   -0.2127  -17.2164    9.2602 C   0  0  0  0  0  0  0  0  0  0  0  0
   -1.1772  -17.6257   10.1716 O   0  0  0  0  0  0  0  0  0  0  0  0
    1.1155  -17.4434    9.5385 C   0  0  0  0  0  0  0  0  0  0  0  0
    2.1229  -17.0479    8.6485 C   0  0  0  0  0  0  0  0  0  0  0  0
  1  2  2  0
  1  7  1  0
  2  3  1  0
  3  4  1  0
  3  5  2  0
  5  6  1  0
  6  7  2  0
  8  7  1  1
  8  9  1  0
  8 13  1  0
  9 10  1  6
  9 11  1  0
  9 12  1  0
 13 14  2  0
 13 19  1  0
 14 15  1  0
 15 16  2  0
 16 17  1  0
 16 18  1  0
 18 19  2  0
M  END
$$$$
