
     RDKit          3D

 19 20  0  0  0  0  0  0  0  0999 V2000
    5.0568  -18.1393    7.1670 C   0  0  0  0  0  0  0  0  0  0  0  0
    5.5375  -18.9181    8.2159 C   0  0  0  0  0  0  0  0  0  0  0  0
    4.8407  -18.9679    9.3821 C   0  0  0  0  0  0  0  0  0  0  0  0
    5.2936  -19.7383   10.4538 O   0  0  0  0  0  0  0  0  0  0  0  0
    3.6668  -18.2522    9.5249 C   0  0  0  0  0  0  0  0  0  0  0  0
    3.2145  -17.4801    8.4486 C   0  0  0  0  0  0  0  0  0  0  0  0
    3.8946  -17.4115    7.2643 C   0  0  0  0  0  0  0  0  0  0  0  0
    3.4571  -16.6091    6.1175 C   0  0  1  0  0  0  0  0  0  0  0  0
    1.9934  -16.4372    5.9347 C   0  0  1  0  0  0  0  0  0  0  0  0
    1.6959  -15.5294    4.4063 Cl  0  0  0  0  0  0  0  0  0  0  0  0
    1.0049  -17.8656    5.9531 Cl  0  0  0  0  0  0  0  0  0  0  0  0
    1.4361  -15.3173    7.2342 Cl  0  0  0  0  0  0  0  0  0  0  0  0
    4.2498  -15.3419    6.0032 C   0  0  0  0  0  0  0  0  0  0  0  0
    4.8629  -14.9816    4.7972 C   0  0  0  0  0  0  0  0  0  0  0  0
    5.6062  -13.8331    4.6448 C   0  0  0  0  0  0  0  0  0  0  0  0
    5.7753  -12.9749    5.7087 C   0  0  0  0  0  0  0  0  0  0  0  0
    6.5144  -11.8034    5.6109 O   0  0  0  0  0  0  0  0  0  0  0  0
    5.1855  -13.3002    6.9085 C   0  0  0  0  0  0  0  0  0  0  0  0
    4.4308  -14.4718    7.0538 C   0  0  0  0  0  0  0  0  0  0  0  0
  1  2  2  0
  1  7  1  0
  2  3  1  0
  3  4  1  0
  3  5  2  0
  5  6  1  0
  6  7  2  0
  8  7  1  1
  8  9  1  0
  8 13  1  0
  9 10  1  6
  9 11  1  0
  9 12  1  0
 13 14  2  0
 13 19  1  0
 14 15  1  0
 15 16  2  0
 16 17  1  0
 16 18  1  0
 18 19  2  0
M  END
$$$$
