
     RDKit          3D

 19 20  0  0  0  0  0  0  0  0999 V2000
    5.0543  -14.8364    7.1287 C   0  0  0  0  0  0  0  0  0  0  0  0
    6.3492  -14.8026    7.6387 C   0  0  0  0  0  0  0  0  0  0  0  0
    6.9042  -15.9450    8.1231 C   0  0  0  0  0  0  0  0  0  0  0  0
    8.1998  -15.9471    8.6415 O   0  0  0  0  0  0  0  0  0  0  0  0
    6.1899  -17.1284    8.1094 C   0  0  0  0  0  0  0  0  0  0  0  0
    4.8906  -17.1238    7.5890 C   0  0  0  0  0  0  0  0  0  0  0  0
    4.3074  -15.9900    7.0950 C   0  0  0  0  0  0  0  0  0  0  0  0
    2.9474  -15.9437    6.5486 C   0  0  1  0  0  0  0  0  0  0  0  0
    2.7203  -16.6239    5.2482 C   0  0  1  0  0  0  0  0  0  0  0  0
    2.4931  -18.3879    5.5408 Cl  0  0  0  0  0  0  0  0  0  0  0  0
    1.4268  -16.0390    4.2470 Cl  0  0  0  0  0  0  0  0  0  0  0  0
    4.2698  -16.5201    4.3306 Cl  0  0  0  0  0  0  0  0  0  0  0  0
    1.9254  -16.2570    7.5996 C   0  0  0  0  0  0  0  0  0  0  0  0
    1.0063  -15.2892    8.0224 C   0  0  0  0  0  0  0  0  0  0  0  0
    0.0547  -15.5264    8.9883 C   0  0  0  0  0  0  0  0  0  0  0  0
   -0.0252  -16.7636    9.5883 C   0  0  0  0  0  0  0  0  0  0  0  0
   -0.9650  -17.0575   10.5675 O   0  0  0  0  0  0  0  0  0  0  0  0
    0.8640  -17.7372    9.1953 C   0  0  0  0  0  0  0  0  0  0  0  0
    1.8293  -17.4859    8.2111 C   0  0  0  0  0  0  0  0  0  0  0  0
  1  2  2  0
  1  7  1  0
  2  3  1  0
  3  4  1  0
  3  5  2  0
  5  6  1  0
  6  7  2  0
  8  7  1  1
  8  9  1  0
  8 13  1  0
  9 10  1  1
  9 11  1  0
  9 12  1  0
 13 14  2  0
 13 19  1  0
 14 15  1  0
 15 16  2  0
 16 17  1  0
 16 18  1  0
 18 19  2  0
M  END
$$$$
