
     RDKit          3D

 19 20  0  0  0  0  0  0  0  0999 V2000
    2.1533  -15.1945    7.8547 C   0  0  0  0  0  0  0  0  0  0  0  0
    1.2980  -14.4971    8.7033 C   0  0  0  0  0  0  0  0  0  0  0  0
    0.4475  -15.1887    9.5070 C   0  0  0  0  0  0  0  0  0  0  0  0
   -0.4232  -14.5217   10.3697 O   0  0  0  0  0  0  0  0  0  0  0  0
    0.4320  -16.5707    9.4819 C   0  0  0  0  0  0  0  0  0  0  0  0
    1.3062  -17.2376    8.6158 C   0  0  0  0  0  0  0  0  0  0  0  0
    2.1722  -16.5678    7.7966 C   0  0  0  0  0  0  0  0  0  0  0  0
    3.0973  -17.2300    6.8713 C   0  0  1  0  0  0  0  0  0  0  0  0
    2.7594  -17.1747    5.4262 C   0  0  1  0  0  0  0  0  0  0  0  0
    1.2812  -18.1628    5.1313 Cl  0  0  0  0  0  0  0  0  0  0  0  0
    2.5530  -15.6076    4.7056 Cl  0  0  0  0  0  0  0  0  0  0  0  0
    4.0677  -18.0578    4.5532 Cl  0  0  0  0  0  0  0  0  0  0  0  0
    4.5228  -16.8919    7.1887 C   0  0  0  0  0  0  0  0  0  0  0  0
    5.3102  -17.7477    7.9685 C   0  0  0  0  0  0  0  0  0  0  0  0
    6.6204  -17.4778    8.2926 C   0  0  0  0  0  0  0  0  0  0  0  0
    7.2169  -16.3197    7.8453 C   0  0  0  0  0  0  0  0  0  0  0  0
    8.5347  -15.9976    8.1420 O   0  0  0  0  0  0  0  0  0  0  0  0
    6.4701  -15.4569    7.0765 C   0  0  0  0  0  0  0  0  0  0  0  0
    5.1368  -15.7405    6.7519 C   0  0  0  0  0  0  0  0  0  0  0  0
  1  2  2  0
  1  7  1  0
  2  3  1  0
  3  4  1  0
  3  5  2  0
  5  6  1  0
  6  7  2  0
  8  7  1  1
  8  9  1  0
  8 13  1  0
  9 10  1  1
  9 11  1  0
  9 12  1  0
 13 14  2  0
 13 19  1  0
 14 15  1  0
 15 16  2  0
 16 17  1  0
 16 18  1  0
 18 19  2  0
M  END
$$$$
