
     RDKit          3D

 19 20  0  0  0  0  0  0  0  0999 V2000
    4.7876  -17.0673    7.4621 C   0  0  0  0  0  0  0  0  0  0  0  0
    6.1041  -17.1220    7.9113 C   0  0  0  0  0  0  0  0  0  0  0  0
    6.9273  -16.0629    7.6912 C   0  0  0  0  0  0  0  0  0  0  0  0
    8.2525  -16.0839    8.1279 O   0  0  0  0  0  0  0  0  0  0  0  0
    6.4619  -14.9430    7.0280 C   0  0  0  0  0  0  0  0  0  0  0  0
    5.1323  -14.9242    6.5909 C   0  0  0  0  0  0  0  0  0  0  0  0
    4.2820  -15.9747    6.7985 C   0  0  0  0  0  0  0  0  0  0  0  0
    2.8861  -15.9954    6.3499 C   0  0  1  0  0  0  0  0  0  0  0  0
    2.5945  -16.7235    5.0888 C   0  0  1  0  0  0  0  0  0  0  0  0
    3.9162  -17.9086    4.7767 Cl  0  0  0  0  0  0  0  0  0  0  0  0
    1.0612  -17.5296    4.9589 Cl  0  0  0  0  0  0  0  0  0  0  0  0
    2.7457  -15.5240    3.7501 Cl  0  0  0  0  0  0  0  0  0  0  0  0
    1.9538  -16.3136    7.4799 C   0  0  0  0  0  0  0  0  0  0  0  0
    1.2265  -15.3031    8.1205 C   0  0  0  0  0  0  0  0  0  0  0  0
    0.3644  -15.5440    9.1662 C   0  0  0  0  0  0  0  0  0  0  0  0
    0.1848  -16.8285    9.6298 C   0  0  0  0  0  0  0  0  0  0  0  0
   -0.6719  -17.1284   10.6808 O   0  0  0  0  0  0  0  0  0  0  0  0
    0.8852  -17.8447    9.0217 C   0  0  0  0  0  0  0  0  0  0  0  0
    1.7607  -17.5893    7.9578 C   0  0  0  0  0  0  0  0  0  0  0  0
  1  2  2  0
  1  7  1  0
  2  3  1  0
  3  4  1  0
  3  5  2  0
  5  6  1  0
  6  7  2  0
  8  7  1  1
  8  9  1  0
  8 13  1  0
  9 10  1  6
  9 11  1  0
  9 12  1  0
 13 14  2  0
 13 19  1  0
 14 15  1  0
 15 16  2  0
 16 17  1  0
 16 18  1  0
 18 19  2  0
M  END
$$$$
