
     RDKit          3D

 19 20  0  0  0  0  0  0  0  0999 V2000
    1.8766  -15.8426    8.0261 C   0  0  0  0  0  0  0  0  0  0  0  0
    0.9339  -15.6134    9.0244 C   0  0  0  0  0  0  0  0  0  0  0  0
    0.2641  -16.6668    9.5624 C   0  0  0  0  0  0  0  0  0  0  0  0
   -0.6873  -16.4732   10.5647 O   0  0  0  0  0  0  0  0  0  0  0  0
    0.5165  -17.9527    9.1225 C   0  0  0  0  0  0  0  0  0  0  0  0
    1.4712  -18.1444    8.1171 C   0  0  0  0  0  0  0  0  0  0  0  0
    2.1600  -17.1038    7.5581 C   0  0  0  0  0  0  0  0  0  0  0  0
    3.1614  -17.2634    6.4990 C   0  0  1  0  0  0  0  0  0  0  0  0
    2.7564  -16.8731    5.1245 C   0  0  1  0  0  0  0  0  0  0  0  0
    2.5618  -18.3608    4.1257 Cl  0  0  0  0  0  0  0  0  0  0  0  0
    1.3421  -15.8793    4.9519 Cl  0  0  0  0  0  0  0  0  0  0  0  0
    4.1676  -16.0237    4.3891 Cl  0  0  0  0  0  0  0  0  0  0  0  0
    4.4974  -16.7343    6.9260 C   0  0  0  0  0  0  0  0  0  0  0  0
    4.8850  -15.4241    6.6202 C   0  0  0  0  0  0  0  0  0  0  0  0
    6.1027  -14.8954    6.9839 C   0  0  0  0  0  0  0  0  0  0  0  0
    7.0072  -15.6641    7.6826 C   0  0  0  0  0  0  0  0  0  0  0  0
    8.2490  -15.1819    8.0746 O   0  0  0  0  0  0  0  0  0  0  0  0
    6.6569  -16.9566    7.9988 C   0  0  0  0  0  0  0  0  0  0  0  0
    5.4147  -17.4858    7.6240 C   0  0  0  0  0  0  0  0  0  0  0  0
  1  2  2  0
  1  7  1  0
  2  3  1  0
  3  4  1  0
  3  5  2  0
  5  6  1  0
  6  7  2  0
  8  7  1  1
  8  9  1  0
  8 13  1  0
  9 10  1  6
  9 11  1  0
  9 12  1  0
 13 14  2  0
 13 19  1  0
 14 15  1  0
 15 16  2  0
 16 17  1  0
 16 18  1  0
 18 19  2  0
M  END
$$$$
