
     RDKit          3D

 19 20  0  0  0  0  0  0  0  0999 V2000
    3.2747  -15.8575    4.0069 C   0  0  0  0  0  0  0  0  0  0  0  0
    3.2002  -16.4412    2.7453 C   0  0  0  0  0  0  0  0  0  0  0  0
    3.1349  -17.7949    2.6406 C   0  0  0  0  0  0  0  0  0  0  0  0
    3.0593  -18.4132    1.3919 O   0  0  0  0  0  0  0  0  0  0  0  0
    3.1425  -18.5840    3.7755 C   0  0  0  0  0  0  0  0  0  0  0  0
    3.2185  -17.9616    5.0269 C   0  0  0  0  0  0  0  0  0  0  0  0
    3.2850  -16.6026    5.1621 C   0  0  0  0  0  0  0  0  0  0  0  0
    3.3727  -15.9145    6.4541 C   0  0  1  0  0  0  0  0  0  0  0  0
    2.2549  -16.1280    7.4083 C   0  0  1  0  0  0  0  0  0  0  0  0
    1.9637  -17.8980    7.5841 Cl  0  0  0  0  0  0  0  0  0  0  0  0
    2.3923  -15.4116    8.9849 Cl  0  0  0  0  0  0  0  0  0  0  0  0
    0.7626  -15.5080    6.6067 Cl  0  0  0  0  0  0  0  0  0  0  0  0
    4.7382  -16.0553    7.0564 C   0  0  0  0  0  0  0  0  0  0  0  0
    5.1247  -17.2385    7.6974 C   0  0  0  0  0  0  0  0  0  0  0  0
    6.3635  -17.4131    8.2715 C   0  0  0  0  0  0  0  0  0  0  0  0
    7.2914  -16.3959    8.2318 C   0  0  0  0  0  0  0  0  0  0  0  0
    8.5552  -16.5178    8.7943 O   0  0  0  0  0  0  0  0  0  0  0  0
    6.9427  -15.2196    7.6091 C   0  0  0  0  0  0  0  0  0  0  0  0
    5.6789  -15.0515    7.0277 C   0  0  0  0  0  0  0  0  0  0  0  0
  1  2  2  0
  1  7  1  0
  2  3  1  0
  3  4  1  0
  3  5  2  0
  5  6  1  0
  6  7  2  0
  8  7  1  6
  8  9  1  0
  8 13  1  0
  9 10  1  1
  9 11  1  0
  9 12  1  0
 13 14  2  0
 13 19  1  0
 14 15  1  0
 15 16  2  0
 16 17  1  0
 16 18  1  0
 18 19  2  0
M  END
$$$$
