
     RDKit          3D

 19 20  0  0  0  0  0  0  0  0999 V2000
    1.4969  -17.5615    8.1758 C   0  0  0  0  0  0  0  0  0  0  0  0
    0.5478  -17.3248    9.1664 C   0  0  0  0  0  0  0  0  0  0  0  0
    0.2416  -16.0438    9.5028 C   0  0  0  0  0  0  0  0  0  0  0  0
   -0.7048  -15.7703   10.4911 O   0  0  0  0  0  0  0  0  0  0  0  0
    0.8665  -14.9870    8.8677 C   0  0  0  0  0  0  0  0  0  0  0  0
    1.8155  -15.2637    7.8768 C   0  0  0  0  0  0  0  0  0  0  0  0
    2.1430  -16.5419    7.5180 C   0  0  0  0  0  0  0  0  0  0  0  0
    3.1361  -16.8719    6.4909 C   0  0  1  0  0  0  0  0  0  0  0  0
    2.7428  -16.6471    5.0765 C   0  0  1  0  0  0  0  0  0  0  0  0
    4.0771  -15.7832    4.2270 Cl  0  0  0  0  0  0  0  0  0  0  0  0
    2.2712  -18.0324    4.1405 Cl  0  0  0  0  0  0  0  0  0  0  0  0
    1.3852  -15.4596    5.0979 Cl  0  0  0  0  0  0  0  0  0  0  0  0
    4.4910  -16.3405    6.8501 C   0  0  0  0  0  0  0  0  0  0  0  0
    4.8610  -15.0302    6.5238 C   0  0  0  0  0  0  0  0  0  0  0  0
    6.0946  -14.4994    6.8256 C   0  0  0  0  0  0  0  0  0  0  0  0
    7.0338  -15.2660    7.4794 C   0  0  0  0  0  0  0  0  0  0  0  0
    8.2930  -14.7815    7.8083 O   0  0  0  0  0  0  0  0  0  0  0  0
    6.7015  -16.5585    7.8142 C   0  0  0  0  0  0  0  0  0  0  0  0
    5.4430  -17.0898    7.5025 C   0  0  0  0  0  0  0  0  0  0  0  0
  1  2  2  0
  1  7  1  0
  2  3  1  0
  3  4  1  0
  3  5  2  0
  5  6  1  0
  6  7  2  0
  8  7  1  1
  8  9  1  0
  8 13  1  0
  9 10  1  6
  9 11  1  0
  9 12  1  0
 13 14  2  0
 13 19  1  0
 14 15  1  0
 15 16  2  0
 16 17  1  0
 16 18  1  0
 18 19  2  0
M  END
$$$$
