
     RDKit          3D

 19 20  0  0  0  0  0  0  0  0999 V2000
    5.0697  -15.1909    6.8702 C   0  0  0  0  0  0  0  0  0  0  0  0
    6.3150  -14.7420    7.3013 C   0  0  0  0  0  0  0  0  0  0  0  0
    7.0775  -15.5471    8.0875 C   0  0  0  0  0  0  0  0  0  0  0  0
    8.3305  -15.1290    8.5374 O   0  0  0  0  0  0  0  0  0  0  0  0
    6.6210  -16.7990    8.4552 C   0  0  0  0  0  0  0  0  0  0  0  0
    5.3639  -17.2162    8.0027 C   0  0  0  0  0  0  0  0  0  0  0  0
    4.5757  -16.4276    7.2110 C   0  0  0  0  0  0  0  0  0  0  0  0
    3.2515  -16.8261    6.7233 C   0  0  1  0  0  0  0  0  0  0  0  0
    2.0747  -16.2410    7.4150 C   0  0  1  0  0  0  0  0  0  0  0  0
    0.5957  -17.1468    6.9242 Cl  0  0  0  0  0  0  0  0  0  0  0  0
    2.1296  -16.1317    9.1479 Cl  0  0  0  0  0  0  0  0  0  0  0  0
    1.8358  -14.5907    6.7271 Cl  0  0  0  0  0  0  0  0  0  0  0  0
    3.1815  -16.7725    5.2268 C   0  0  0  0  0  0  0  0  0  0  0  0
    3.1775  -17.9459    4.4631 C   0  0  0  0  0  0  0  0  0  0  0  0
    3.1218  -17.9482    3.0877 C   0  0  0  0  0  0  0  0  0  0  0  0
    3.0665  -16.7574    2.3979 C   0  0  0  0  0  0  0  0  0  0  0  0
    3.0089  -16.7013    1.0115 O   0  0  0  0  0  0  0  0  0  0  0  0
    3.0690  -15.5857    3.1192 C   0  0  0  0  0  0  0  0  0  0  0  0
    3.1261  -15.5937    4.5192 C   0  0  0  0  0  0  0  0  0  0  0  0
  1  2  2  0
  1  7  1  0
  2  3  1  0
  3  4  1  0
  3  5  2  0
  5  6  1  0
  6  7  2  0
  8  7  1  1
  8  9  1  0
  8 13  1  0
  9 10  1  1
  9 11  1  0
  9 12  1  0
 13 14  2  0
 13 19  1  0
 14 15  1  0
 15 16  2  0
 16 17  1  0
 16 18  1  0
 18 19  2  0
M  END
$$$$
