
     RDKit          3D

 19 20  0  0  0  0  0  0  0  0999 V2000
    5.1866  -14.9717    6.9198 C   0  0  0  0  0  0  0  0  0  0  0  0
    6.5002  -14.9604    7.3805 C   0  0  0  0  0  0  0  0  0  0  0  0
    7.0075  -16.0733    7.9736 C   0  0  0  0  0  0  0  0  0  0  0  0
    8.3201  -16.0967    8.4468 O   0  0  0  0  0  0  0  0  0  0  0  0
    6.2268  -17.2048    8.1180 C   0  0  0  0  0  0  0  0  0  0  0  0
    4.9106  -17.1790    7.6427 C   0  0  0  0  0  0  0  0  0  0  0  0
    4.3742  -16.0740    7.0420 C   0  0  0  0  0  0  0  0  0  0  0  0
    2.9988  -16.0059    6.5381 C   0  0  1  0  0  0  0  0  0  0  0  0
    2.7567  -16.5257    5.1682 C   0  0  1  0  0  0  0  0  0  0  0  0
    3.9067  -15.7336    4.0286 Cl  0  0  0  0  0  0  0  0  0  0  0  0
    2.8155  -18.2462    4.9362 Cl  0  0  0  0  0  0  0  0  0  0  0  0
    1.1361  -15.9171    4.6611 Cl  0  0  0  0  0  0  0  0  0  0  0  0
    2.0165  -16.4826    7.5653 C   0  0  0  0  0  0  0  0  0  0  0  0
    1.7270  -17.8450    7.7081 C   0  0  0  0  0  0  0  0  0  0  0  0
    0.8282  -18.3305    8.6306 C   0  0  0  0  0  0  0  0  0  0  0  0
    0.1641  -17.4628    9.4691 C   0  0  0  0  0  0  0  0  0  0  0  0
   -0.7522  -17.8978   10.4176 O   0  0  0  0  0  0  0  0  0  0  0  0
    0.4261  -16.1169    9.3543 C   0  0  0  0  0  0  0  0  0  0  0  0
    1.3428  -15.6323    8.4118 C   0  0  0  0  0  0  0  0  0  0  0  0
  1  2  2  0
  1  7  1  0
  2  3  1  0
  3  4  1  0
  3  5  2  0
  5  6  1  0
  6  7  2  0
  8  7  1  1
  8  9  1  0
  8 13  1  0
  9 10  1  6
  9 11  1  0
  9 12  1  0
 13 14  2  0
 13 19  1  0
 14 15  1  0
 15 16  2  0
 16 17  1  0
 16 18  1  0
 18 19  2  0
M  END
$$$$
