
     RDKit          3D

 19 20  0  0  0  0  0  0  0  0999 V2000
    3.9200  -14.3234    4.9310 C   0  0  0  0  0  0  0  0  0  0  0  0
    4.2538  -13.9580    3.6299 C   0  0  0  0  0  0  0  0  0  0  0  0
    4.2929  -14.9098    2.6602 C   0  0  0  0  0  0  0  0  0  0  0  0
    4.6236  -14.5787    1.3455 O   0  0  0  0  0  0  0  0  0  0  0  0
    4.0043  -16.2273    2.9631 C   0  0  0  0  0  0  0  0  0  0  0  0
    3.6730  -16.5571    4.2824 C   0  0  0  0  0  0  0  0  0  0  0  0
    3.6256  -15.6207    5.2777 C   0  0  0  0  0  0  0  0  0  0  0  0
    3.2900  -15.9280    6.6717 C   0  0  1  0  0  0  0  0  0  0  0  0
    2.0261  -16.6697    6.9126 C   0  0  1  0  0  0  0  0  0  0  0  0
    2.1332  -18.2843    6.1186 Cl  0  0  0  0  0  0  0  0  0  0  0  0
    1.5128  -16.8751    8.5594 Cl  0  0  0  0  0  0  0  0  0  0  0  0
    0.7349  -15.8065    5.9954 Cl  0  0  0  0  0  0  0  0  0  0  0  0
    4.4764  -16.4663    7.4134 C   0  0  0  0  0  0  0  0  0  0  0  0
    4.7639  -17.8365    7.4158 C   0  0  0  0  0  0  0  0  0  0  0  0
    5.8362  -18.3791    8.0869 C   0  0  0  0  0  0  0  0  0  0  0  0
    6.6872  -17.5642    8.8002 C   0  0  0  0  0  0  0  0  0  0  0  0
    7.7835  -18.0578    9.4951 O   0  0  0  0  0  0  0  0  0  0  0  0
    6.4323  -16.2122    8.8181 C   0  0  0  0  0  0  0  0  0  0  0  0
    5.3379  -15.6694    8.1317 C   0  0  0  0  0  0  0  0  0  0  0  0
  1  2  2  0
  1  7  1  0
  2  3  1  0
  3  4  1  0
  3  5  2  0
  5  6  1  0
  6  7  2  0
  8  7  1  6
  8  9  1  0
  8 13  1  0
  9 10  1  6
  9 11  1  0
  9 12  1  0
 13 14  2  0
 13 19  1  0
 14 15  1  0
 15 16  2  0
 16 17  1  0
 16 18  1  0
 18 19  2  0
M  END
$$$$
