
     RDKit          3D

 41 44  0  0  0  0  0  0  0  0999 V2000
  -17.5745   25.3382  -16.2100 C   0  0  0  0  0  0  0  0  0  0  0  0
  -19.0545   17.6849  -19.1354 C   0  0  0  0  0  0  0  0  0  0  0  0
  -16.3321   26.0958  -16.3559 C   0  0  0  0  0  0  0  0  0  0  0  0
  -15.4063   25.8901  -17.4872 C   0  0  0  0  0  0  0  0  0  0  0  0
  -17.5224   20.3389  -15.7356 C   0  0  0  0  0  0  0  0  0  0  0  0
  -14.1452   26.6327  -17.4214 C   0  0  0  0  0  0  0  0  0  0  0  0
  -17.7579   22.9558  -16.6879 C   0  0  0  0  0  0  0  0  0  0  0  0
  -17.5930   22.6728  -15.3271 C   0  0  0  0  0  0  0  0  0  0  0  0
  -17.4761   21.3845  -14.8516 C   0  0  0  0  0  0  0  0  0  0  0  0
  -17.6854   20.6111  -17.0740 C   0  0  0  0  0  0  0  0  0  0  0  0
  -18.7084   18.5069  -17.9842 C   0  0  0  0  0  0  0  0  0  0  0  0
  -17.8583   24.3093  -17.1319 N   0  0  0  0  0  0  0  0  0  0  0  0
  -17.7306   19.5129  -17.9985 N   0  0  0  0  0  0  0  0  0  0  0  0
  -18.2604   24.5575  -18.5076 C   0  0  0  0  0  0  0  0  0  0  0  0
  -18.7934   23.3400  -19.1975 C   0  0  1  0  0  0  0  0  0  0  0  0
  -20.0726   16.7587  -19.0633 C   0  0  0  0  0  0  0  0  0  0  0  0
  -20.4446   15.9559  -20.1205 C   0  0  0  0  0  0  0  0  0  0  0  0
  -19.7687   16.0836  -21.3055 C   0  0  0  0  0  0  0  0  0  0  0  0
  -21.2334   14.4645  -22.3914 C   0  0  0  0  0  0  0  0  0  0  0  0
  -21.2968   13.7503  -23.7107 C   0  0  0  0  0  0  0  0  0  0  0  0
  -18.7351   23.5378  -20.6649 C   0  0  0  0  0  0  0  0  0  0  0  0
  -22.2808   12.5737  -23.6495 C   0  0  0  0  0  0  0  0  0  0  0  0
  -23.3566   12.9928  -22.6466 C   0  0  0  0  0  0  0  0  0  0  0  0
  -24.3827   11.9207  -22.6791 C   0  0  0  0  0  0  0  0  0  0  0  0
  -25.5396   12.0296  -23.4060 C   0  0  0  0  0  0  0  0  0  0  0  0
  -26.4928   11.0248  -23.4307 C   0  0  0  0  0  0  0  0  0  0  0  0
  -26.2233    9.8936  -22.6814 C   0  0  0  0  0  0  0  0  0  0  0  0
  -25.0588    9.7542  -21.9342 C   0  0  0  0  0  0  0  0  0  0  0  0
  -24.1484   10.7800  -21.9452 C   0  0  0  0  0  0  0  0  0  0  0  0
  -18.7476   16.9894  -21.4319 C   0  0  0  0  0  0  0  0  0  0  0  0
  -18.3947   17.7900  -20.3378 C   0  0  0  0  0  0  0  0  0  0  0  0
  -17.8016   21.8879  -17.5440 C   0  0  0  0  0  0  0  0  0  0  0  0
  -27.6357   11.1353  -24.1505 F   0  0  0  0  0  0  0  0  0  0  0  0
  -18.4607   22.5712  -21.4126 O   0  0  0  0  0  0  0  0  0  0  0  0
  -18.9782   24.7777  -21.2491 O   0  0  0  0  0  0  0  0  0  0  0  0
  -14.0634   27.8519  -17.1135 O   0  0  0  0  0  0  0  0  0  0  0  0
  -12.9152   26.0145  -17.7053 O   0  0  0  0  0  0  0  0  0  0  0  0
  -19.3204   18.3128  -16.8941 O   0  0  0  0  0  0  0  0  0  0  0  0
  -20.1026   15.2993  -22.4030 O   0  0  0  0  0  0  0  0  0  0  0  0
  -17.9731   22.1977  -18.8966 O   0  0  0  0  0  0  0  0  0  0  0  0
  -22.6651   10.6084  -20.9969 Cl  0  0  0  0  0  0  0  0  0  0  0  0
  1  3  1  0
 12  1  1  0
  2 11  1  0
 16  2  2  0
  2 31  1  0
  3  4  1  0
  4  6  1  0
  5  9  2  0
 10  5  1  0
  6 36  2  0
  6 37  1  0
  7  8  2  0
  7 12  1  0
 32  7  1  0
  9  8  1  0
 13 10  1  0
 10 32  2  0
 11 13  1  0
 11 38  2  0
 12 14  1  0
 14 15  1  0
 15 21  1  6
 15 40  1  0
 17 16  1  0
 18 17  2  0
 18 30  1  0
 39 18  1  0
 19 20  1  0
 19 39  1  0
 20 22  1  0
 21 34  2  0
 21 35  1  0
 22 23  1  0
 23 24  1  0
 24 25  2  0
 24 29  1  0
 25 26  1  0
 26 27  2  0
 26 33  1  0
 27 28  1  0
 28 29  2  0
 29 41  1  0
 30 31  2  0
 32 40  1  0
M  END
$$$$
