
     RDKit          3D

 41 44  0  0  0  0  0  0  0  0999 V2000
  -25.3817   11.0251  -21.0108 C   0  0  0  0  0  0  0  0  0  0  0  0
  -17.7026   14.7008  -21.9126 C   0  0  0  0  0  0  0  0  0  0  0  0
  -26.6258   11.3573  -21.7041 C   0  0  0  0  0  0  0  0  0  0  0  0
  -27.4005   12.5771  -21.4017 C   0  0  0  0  0  0  0  0  0  0  0  0
  -21.1649   12.4792  -23.3185 C   0  0  0  0  0  0  0  0  0  0  0  0
  -28.6288   12.7605  -22.1786 C   0  0  0  0  0  0  0  0  0  0  0  0
  -23.3415   12.2282  -21.5836 C   0  0  0  0  0  0  0  0  0  0  0  0
  -23.2731   11.5303  -22.7948 C   0  0  0  0  0  0  0  0  0  0  0  0
  -22.2023   11.6498  -23.6543 C   0  0  0  0  0  0  0  0  0  0  0  0
  -21.2273   13.1684  -22.1298 C   0  0  0  0  0  0  0  0  0  0  0  0
  -18.7841   13.7288  -21.9910 C   0  0  0  0  0  0  0  0  0  0  0  0
  -24.4660   12.0576  -20.7201 N   0  0  0  0  0  0  0  0  0  0  0  0
  -20.1369   14.0348  -21.7792 N   0  0  0  0  0  0  0  0  0  0  0  0
  -24.6162   12.9650  -19.5932 C   0  0  0  0  0  0  0  0  0  0  0  0
  -23.7024   14.1494  -19.6609 C   0  0  1  0  0  0  0  0  0  0  0  0
  -17.8971   15.9298  -21.3197 C   0  0  0  0  0  0  0  0  0  0  0  0
  -16.9104   16.8868  -21.2155 C   0  0  0  0  0  0  0  0  0  0  0  0
  -15.6712   16.6041  -21.7272 C   0  0  0  0  0  0  0  0  0  0  0  0
  -14.8948   18.9151  -21.6752 C   0  0  0  0  0  0  0  0  0  0  0  0
  -13.8209   19.5999  -20.8799 C   0  0  0  0  0  0  0  0  0  0  0  0
  -23.5705   14.7498  -18.3126 C   0  0  0  0  0  0  0  0  0  0  0  0
  -12.7397   18.6004  -20.4459 C   0  0  0  0  0  0  0  0  0  0  0  0
  -11.6036   19.4501  -19.8749 C   0  0  0  0  0  0  0  0  0  0  0  0
  -11.3617   20.5262  -20.8684 C   0  0  0  0  0  0  0  0  0  0  0  0
  -10.5088   20.3710  -21.9300 C   0  0  0  0  0  0  0  0  0  0  0  0
  -10.2879   21.3802  -22.8527 C   0  0  0  0  0  0  0  0  0  0  0  0
  -10.9733   22.5653  -22.6539 C   0  0  0  0  0  0  0  0  0  0  0  0
  -11.8451   22.7524  -21.5867 C   0  0  0  0  0  0  0  0  0  0  0  0
  -12.0270   21.7197  -20.7025 C   0  0  0  0  0  0  0  0  0  0  0  0
  -15.4234   15.3969  -22.3275 C   0  0  0  0  0  0  0  0  0  0  0  0
  -16.4484   14.4462  -22.4169 C   0  0  0  0  0  0  0  0  0  0  0  0
  -22.2890   13.0496  -21.2791 C   0  0  0  0  0  0  0  0  0  0  0  0
   -9.4440   21.2238  -23.9014 F   0  0  0  0  0  0  0  0  0  0  0  0
  -22.5198   15.3567  -18.0018 O   0  0  0  0  0  0  0  0  0  0  0  0
  -24.5877   14.6615  -17.3665 O   0  0  0  0  0  0  0  0  0  0  0  0
  -29.4341   11.8297  -22.4494 O   0  0  0  0  0  0  0  0  0  0  0  0
  -28.9951   14.0200  -22.6838 O   0  0  0  0  0  0  0  0  0  0  0  0
  -18.5010   12.5270  -22.2669 O   0  0  0  0  0  0  0  0  0  0  0  0
  -14.6405   17.5330  -21.6491 O   0  0  0  0  0  0  0  0  0  0  0  0
  -22.3851   13.7397  -20.0669 O   0  0  0  0  0  0  0  0  0  0  0  0
  -13.1347   21.9517  -19.3432 Cl  0  0  0  0  0  0  0  0  0  0  0  0
  1  3  1  0
 12  1  1  0
  2 11  1  0
 16  2  2  0
  2 31  1  0
  3  4  1  0
  4  6  1  0
  5  9  2  0
 10  5  1  0
  6 36  2  0
  6 37  1  0
  7  8  2  0
  7 12  1  0
 32  7  1  0
  9  8  1  0
 13 10  1  0
 10 32  2  0
 11 13  1  0
 11 38  2  0
 12 14  1  0
 14 15  1  0
 15 21  1  1
 15 40  1  0
 17 16  1  0
 18 17  2  0
 18 30  1  0
 39 18  1  0
 19 20  1  0
 19 39  1  0
 20 22  1  0
 21 34  2  0
 21 35  1  0
 22 23  1  0
 23 24  1  0
 24 25  2  0
 24 29  1  0
 25 26  1  0
 26 27  2  0
 26 33  1  0
 27 28  1  0
 28 29  2  0
 29 41  1  0
 30 31  2  0
 32 40  1  0
M  END
$$$$
