
     RDKit          3D

 41 44  0  0  0  0  0  0  0  0999 V2000
  -16.5489   25.4121  -15.7689 C   0  0  0  0  0  0  0  0  0  0  0  0
  -19.7502   18.0957  -18.4379 C   0  0  0  0  0  0  0  0  0  0  0  0
  -16.4505   26.8331  -16.1005 C   0  0  0  0  0  0  0  0  0  0  0  0
  -17.6226   27.6370  -16.4994 C   0  0  0  0  0  0  0  0  0  0  0  0
  -20.0710   21.8387  -15.9863 C   0  0  0  0  0  0  0  0  0  0  0  0
  -17.3316   28.8488  -17.2693 C   0  0  0  0  0  0  0  0  0  0  0  0
  -17.9643   23.5874  -16.5469 C   0  0  0  0  0  0  0  0  0  0  0  0
  -18.7859   23.7501  -15.4255 C   0  0  0  0  0  0  0  0  0  0  0  0
  -19.8261   22.8909  -15.1437 C   0  0  0  0  0  0  0  0  0  0  0  0
  -19.2674   21.6747  -17.0904 C   0  0  0  0  0  0  0  0  0  0  0  0
  -19.7034   19.2443  -17.5439 C   0  0  0  0  0  0  0  0  0  0  0  0
  -16.8890   24.4962  -16.7860 N   0  0  0  0  0  0  0  0  0  0  0  0
  -19.5249   20.5691  -17.9701 N   0  0  0  0  0  0  0  0  0  0  0  0
  -16.2085   24.4394  -18.0704 C   0  0  0  0  0  0  0  0  0  0  0  0
  -16.9288   23.6070  -19.0857 C   0  0  1  0  0  0  0  0  0  0  0  0
  -19.4989   18.2371  -19.7857 C   0  0  0  0  0  0  0  0  0  0  0  0
  -19.5273   17.1861  -20.6773 C   0  0  0  0  0  0  0  0  0  0  0  0
  -19.8202   15.9351  -20.2015 C   0  0  0  0  0  0  0  0  0  0  0  0
  -19.6404   14.9795  -22.4378 C   0  0  0  0  0  0  0  0  0  0  0  0
  -19.6053   13.6057  -23.0429 C   0  0  0  0  0  0  0  0  0  0  0  0
  -15.9880   23.2159  -20.1617 C   0  0  0  0  0  0  0  0  0  0  0  0
  -20.0818   12.5510  -22.0344 C   0  0  0  0  0  0  0  0  0  0  0  0
  -21.0566   11.6599  -22.8053 C   0  0  0  0  0  0  0  0  0  0  0  0
  -22.4155   12.0866  -22.3869 C   0  0  0  0  0  0  0  0  0  0  0  0
  -23.2223   12.8594  -23.1807 C   0  0  0  0  0  0  0  0  0  0  0  0
  -24.4891   13.2541  -22.7828 C   0  0  0  0  0  0  0  0  0  0  0  0
  -24.9093   12.8294  -21.5351 C   0  0  0  0  0  0  0  0  0  0  0  0
  -24.1135   12.0448  -20.7075 C   0  0  0  0  0  0  0  0  0  0  0  0
  -22.8672   11.6824  -21.1511 C   0  0  0  0  0  0  0  0  0  0  0  0
  -20.0782   15.7382  -18.8697 C   0  0  0  0  0  0  0  0  0  0  0  0
  -20.0413   16.8280  -17.9902 C   0  0  0  0  0  0  0  0  0  0  0  0
  -18.2373   22.5268  -17.3689 C   0  0  0  0  0  0  0  0  0  0  0  0
  -25.2847   14.0182  -23.5700 F   0  0  0  0  0  0  0  0  0  0  0  0
  -16.0405   22.0615  -20.6448 O   0  0  0  0  0  0  0  0  0  0  0  0
  -15.0350   24.0992  -20.6610 O   0  0  0  0  0  0  0  0  0  0  0  0
  -17.6489   29.0056  -18.4788 O   0  0  0  0  0  0  0  0  0  0  0  0
  -16.6621   29.9412  -16.6911 O   0  0  0  0  0  0  0  0  0  0  0  0
  -19.8303   19.0507  -16.3001 O   0  0  0  0  0  0  0  0  0  0  0  0
  -19.8621   14.8405  -21.0567 O   0  0  0  0  0  0  0  0  0  0  0  0
  -17.4059   22.3907  -18.4848 O   0  0  0  0  0  0  0  0  0  0  0  0
  -21.8505   10.6843  -20.1029 Cl  0  0  0  0  0  0  0  0  0  0  0  0
  1  3  1  0
 12  1  1  0
  2 11  1  0
 16  2  2  0
  2 31  1  0
  3  4  1  0
  4  6  1  0
  5  9  2  0
 10  5  1  0
  6 36  2  0
  6 37  1  0
  7  8  2  0
  7 12  1  0
 32  7  1  0
  9  8  1  0
 13 10  1  0
 10 32  2  0
 11 13  1  0
 11 38  2  0
 12 14  1  0
 14 15  1  0
 15 21  1  6
 15 40  1  0
 17 16  1  0
 18 17  2  0
 18 30  1  0
 39 18  1  0
 19 20  1  0
 19 39  1  0
 20 22  1  0
 21 34  2  0
 21 35  1  0
 22 23  1  0
 23 24  1  0
 24 25  2  0
 24 29  1  0
 25 26  1  0
 26 27  2  0
 26 33  1  0
 27 28  1  0
 28 29  2  0
 29 41  1  0
 30 31  2  0
 32 40  1  0
M  END
$$$$
