
     RDKit          3D

 41 44  0  0  0  0  0  0  0  0999 V2000
  -16.9569   24.0419  -15.6189 C   0  0  0  0  0  0  0  0  0  0  0  0
  -19.7174   17.2456  -19.7355 C   0  0  0  0  0  0  0  0  0  0  0  0
  -16.9669   25.5027  -15.6897 C   0  0  0  0  0  0  0  0  0  0  0  0
  -16.3110   26.2479  -16.7823 C   0  0  0  0  0  0  0  0  0  0  0  0
  -20.3808   20.5580  -16.7854 C   0  0  0  0  0  0  0  0  0  0  0  0
  -15.3797   27.2994  -16.3666 C   0  0  0  0  0  0  0  0  0  0  0  0
  -18.2518   22.3679  -16.8269 C   0  0  0  0  0  0  0  0  0  0  0  0
  -19.1930   22.3525  -15.7912 C   0  0  0  0  0  0  0  0  0  0  0  0
  -20.2449   21.4622  -15.7651 C   0  0  0  0  0  0  0  0  0  0  0  0
  -19.4592   20.5695  -17.8064 C   0  0  0  0  0  0  0  0  0  0  0  0
  -19.8308   18.2469  -18.6842 C   0  0  0  0  0  0  0  0  0  0  0  0
  -17.1704   23.3003  -16.7994 N   0  0  0  0  0  0  0  0  0  0  0  0
  -19.6028   19.6184  -18.8729 N   0  0  0  0  0  0  0  0  0  0  0  0
  -16.3532   23.4465  -17.9938 C   0  0  0  0  0  0  0  0  0  0  0  0
  -16.9460   22.7881  -19.2011 C   0  0  1  0  0  0  0  0  0  0  0  0
  -20.2734   15.9936  -19.5834 C   0  0  0  0  0  0  0  0  0  0  0  0
  -20.1990   15.0084  -20.5448 C   0  0  0  0  0  0  0  0  0  0  0  0
  -19.5386   15.2857  -21.7128 C   0  0  0  0  0  0  0  0  0  0  0  0
  -20.1192   13.1041  -22.6350 C   0  0  0  0  0  0  0  0  0  0  0  0
  -21.1871   13.0998  -23.6905 C   0  0  0  0  0  0  0  0  0  0  0  0
  -15.8878   22.5705  -20.2153 C   0  0  0  0  0  0  0  0  0  0  0  0
  -22.4441   13.8322  -23.2004 C   0  0  0  0  0  0  0  0  0  0  0  0
  -23.6066   12.8776  -23.4763 C   0  0  0  0  0  0  0  0  0  0  0  0
  -24.3522   12.7646  -22.1977 C   0  0  0  0  0  0  0  0  0  0  0  0
  -25.0818   13.8010  -21.6760 C   0  0  0  0  0  0  0  0  0  0  0  0
  -25.7745   13.6880  -20.4818 C   0  0  0  0  0  0  0  0  0  0  0  0
  -25.6971   12.4697  -19.8311 C   0  0  0  0  0  0  0  0  0  0  0  0
  -24.9653   11.4002  -20.3355 C   0  0  0  0  0  0  0  0  0  0  0  0
  -24.2981   11.5665  -21.5223 C   0  0  0  0  0  0  0  0  0  0  0  0
  -18.9672   16.5149  -21.9160 C   0  0  0  0  0  0  0  0  0  0  0  0
  -19.0611   17.4941  -20.9185 C   0  0  0  0  0  0  0  0  0  0  0  0
  -18.4177   21.4522  -17.8315 C   0  0  0  0  0  0  0  0  0  0  0  0
  -26.4951   14.7145  -19.9685 F   0  0  0  0  0  0  0  0  0  0  0  0
  -16.0725   21.7463  -21.1402 O   0  0  0  0  0  0  0  0  0  0  0  0
  -14.6792   23.2599  -20.1753 O   0  0  0  0  0  0  0  0  0  0  0  0
  -14.1770   27.3596  -16.7383 O   0  0  0  0  0  0  0  0  0  0  0  0
  -15.7806   28.3343  -15.5040 O   0  0  0  0  0  0  0  0  0  0  0  0
  -20.1550   17.8710  -17.5206 O   0  0  0  0  0  0  0  0  0  0  0  0
  -19.4339   14.3287  -22.7151 O   0  0  0  0  0  0  0  0  0  0  0  0
  -17.4676   21.4930  -18.8565 O   0  0  0  0  0  0  0  0  0  0  0  0
  -23.3658   10.2096  -22.1690 Cl  0  0  0  0  0  0  0  0  0  0  0  0
  1  3  1  0
 12  1  1  0
  2 11  1  0
 16  2  2  0
  2 31  1  0
  3  4  1  0
  4  6  1  0
  5  9  2  0
 10  5  1  0
  6 36  2  0
  6 37  1  0
  7  8  2  0
  7 12  1  0
 32  7  1  0
  9  8  1  0
 13 10  1  0
 10 32  2  0
 11 13  1  0
 11 38  2  0
 12 14  1  0
 14 15  1  0
 15 21  1  6
 15 40  1  0
 17 16  1  0
 18 17  2  0
 18 30  1  0
 39 18  1  0
 19 20  1  0
 19 39  1  0
 20 22  1  0
 21 34  2  0
 21 35  1  0
 22 23  1  0
 23 24  1  0
 24 25  2  0
 24 29  1  0
 25 26  1  0
 26 27  2  0
 26 33  1  0
 27 28  1  0
 28 29  2  0
 29 41  1  0
 30 31  2  0
 32 40  1  0
M  END
$$$$
