
     RDKit          3D

 41 44  0  0  0  0  0  0  0  0999 V2000
  -25.7650   11.2366  -21.0659 C   0  0  0  0  0  0  0  0  0  0  0  0
  -18.6511   15.7660  -22.2740 C   0  0  0  0  0  0  0  0  0  0  0  0
  -26.8559   11.1211  -20.0988 C   0  0  0  0  0  0  0  0  0  0  0  0
  -26.8024   10.1953  -18.9501 C   0  0  0  0  0  0  0  0  0  0  0  0
  -22.2483   13.5950  -23.7664 C   0  0  0  0  0  0  0  0  0  0  0  0
  -27.8399   10.3817  -17.9329 C   0  0  0  0  0  0  0  0  0  0  0  0
  -23.7728   12.4871  -21.7027 C   0  0  0  0  0  0  0  0  0  0  0  0
  -24.2559   12.5847  -23.0126 C   0  0  0  0  0  0  0  0  0  0  0  0
  -23.5088   13.1298  -24.0345 C   0  0  0  0  0  0  0  0  0  0  0  0
  -21.7688   13.5025  -22.4806 C   0  0  0  0  0  0  0  0  0  0  0  0
  -19.9411   15.2138  -22.6635 C   0  0  0  0  0  0  0  0  0  0  0  0
  -24.5805   11.8992  -20.6823 N   0  0  0  0  0  0  0  0  0  0  0  0
  -20.4460   13.9883  -22.2034 N   0  0  0  0  0  0  0  0  0  0  0  0
  -24.1473   12.0248  -19.2994 C   0  0  0  0  0  0  0  0  0  0  0  0
  -23.0382   13.0138  -19.1140 C   0  0  1  0  0  0  0  0  0  0  0  0
  -17.7080   14.9841  -21.6425 C   0  0  0  0  0  0  0  0  0  0  0  0
  -16.4711   15.4523  -21.2535 C   0  0  0  0  0  0  0  0  0  0  0  0
  -16.1609   16.7627  -21.5066 C   0  0  0  0  0  0  0  0  0  0  0  0
  -13.8272   16.4537  -20.8701 C   0  0  0  0  0  0  0  0  0  0  0  0
  -12.5760   17.2520  -21.0976 C   0  0  0  0  0  0  0  0  0  0  0  0
  -22.3525   12.7522  -17.8267 C   0  0  0  0  0  0  0  0  0  0  0  0
  -12.5459   17.8290  -22.5198 C   0  0  0  0  0  0  0  0  0  0  0  0
  -11.2954   17.2392  -23.1734 C   0  0  0  0  0  0  0  0  0  0  0  0
  -11.5635   17.2345  -24.6334 C   0  0  0  0  0  0  0  0  0  0  0  0
  -11.7444   16.0777  -25.3458 C   0  0  0  0  0  0  0  0  0  0  0  0
  -11.9935   16.0816  -26.7084 C   0  0  0  0  0  0  0  0  0  0  0  0
  -12.0524   17.3180  -27.3261 C   0  0  0  0  0  0  0  0  0  0  0  0
  -11.8731   18.5085  -26.6301 C   0  0  0  0  0  0  0  0  0  0  0  0
  -11.6291   18.4469  -25.2818 C   0  0  0  0  0  0  0  0  0  0  0  0
  -17.0622   17.5845  -22.1321 C   0  0  0  0  0  0  0  0  0  0  0  0
  -18.3107   17.0769  -22.5145 C   0  0  0  0  0  0  0  0  0  0  0  0
  -22.5101   12.9626  -21.4687 C   0  0  0  0  0  0  0  0  0  0  0  0
  -12.1721   14.9361  -27.4102 F   0  0  0  0  0  0  0  0  0  0  0  0
  -21.3098   13.3831  -17.5376 O   0  0  0  0  0  0  0  0  0  0  0  0
  -22.8336   11.8167  -16.9150 O   0  0  0  0  0  0  0  0  0  0  0  0
  -28.8409    9.6270  -17.8042 O   0  0  0  0  0  0  0  0  0  0  0  0
  -27.7817   11.4426  -17.0127 O   0  0  0  0  0  0  0  0  0  0  0  0
  -20.6641   15.8700  -23.4679 O   0  0  0  0  0  0  0  0  0  0  0  0
  -14.9282   17.2862  -21.1356 O   0  0  0  0  0  0  0  0  0  0  0  0
  -22.0540   12.8588  -20.1511 O   0  0  0  0  0  0  0  0  0  0  0  0
  -11.4004   19.9579  -24.3911 Cl  0  0  0  0  0  0  0  0  0  0  0  0
  1  3  1  0
 12  1  1  0
  2 11  1  0
 16  2  2  0
  2 31  1  0
  3  4  1  0
  4  6  1  0
  5  9  2  0
 10  5  1  0
  6 36  2  0
  6 37  1  0
  7  8  2  0
  7 12  1  0
 32  7  1  0
  9  8  1  0
 13 10  1  0
 10 32  2  0
 11 13  1  0
 11 38  2  0
 12 14  1  0
 14 15  1  0
 15 21  1  1
 15 40  1  0
 17 16  1  0
 18 17  2  0
 18 30  1  0
 39 18  1  0
 19 20  1  0
 19 39  1  0
 20 22  1  0
 21 34  2  0
 21 35  1  0
 22 23  1  0
 23 24  1  0
 24 25  2  0
 24 29  1  0
 25 26  1  0
 26 27  2  0
 26 33  1  0
 27 28  1  0
 28 29  2  0
 29 41  1  0
 30 31  2  0
 32 40  1  0
M  END
$$$$
