
     RDKit          3D

 41 44  0  0  0  0  0  0  0  0999 V2000
  -17.1915   -3.0988  -15.5282 C   0  0  0  0  0  0  0  0  0  0  0  0
  -18.2937    4.4057  -19.5702 C   0  0  0  0  0  0  0  0  0  0  0  0
  -16.0290   -3.9388  -15.8144 C   0  0  0  0  0  0  0  0  0  0  0  0
  -15.9450   -5.3489  -15.3856 C   0  0  0  0  0  0  0  0  0  0  0  0
  -18.7886    0.2164  -18.9458 C   0  0  0  0  0  0  0  0  0  0  0  0
  -14.5986   -5.9250  -15.3509 C   0  0  0  0  0  0  0  0  0  0  0  0
  -17.6354   -1.0207  -16.7209 C   0  0  0  0  0  0  0  0  0  0  0  0
  -18.4907   -1.7061  -17.5913 C   0  0  0  0  0  0  0  0  0  0  0  0
  -19.0622   -1.1014  -18.6902 C   0  0  0  0  0  0  0  0  0  0  0  0
  -17.9494    0.8951  -18.0930 C   0  0  0  0  0  0  0  0  0  0  0  0
  -18.0987    2.9639  -19.5075 C   0  0  0  0  0  0  0  0  0  0  0  0
  -17.0558   -1.6971  -15.6047 N   0  0  0  0  0  0  0  0  0  0  0  0
  -17.6622    2.2757  -18.3654 N   0  0  0  0  0  0  0  0  0  0  0  0
  -16.3668   -0.9049  -14.5980 C   0  0  0  0  0  0  0  0  0  0  0  0
  -16.6092    0.5665  -14.7345 C   0  0  1  0  0  0  0  0  0  0  0  0
  -18.1646    5.1871  -18.4422 C   0  0  0  0  0  0  0  0  0  0  0  0
  -18.3356    6.5550  -18.4430 C   0  0  0  0  0  0  0  0  0  0  0  0
  -18.6502    7.1721  -19.6251 C   0  0  0  0  0  0  0  0  0  0  0  0
  -18.6477    9.3611  -18.5506 C   0  0  0  0  0  0  0  0  0  0  0  0
  -19.0272   10.7661  -18.9205 C   0  0  0  0  0  0  0  0  0  0  0  0
  -15.5489    1.3112  -14.0155 C   0  0  0  0  0  0  0  0  0  0  0  0
  -19.7020   10.8059  -20.2987 C   0  0  0  0  0  0  0  0  0  0  0  0
  -20.4928   12.1145  -20.3285 C   0  0  0  0  0  0  0  0  0  0  0  0
  -20.4139   12.6056  -21.7271 C   0  0  0  0  0  0  0  0  0  0  0  0
  -21.4388   12.4460  -22.6231 C   0  0  0  0  0  0  0  0  0  0  0  0
  -21.3572   12.9065  -23.9270 C   0  0  0  0  0  0  0  0  0  0  0  0
  -20.1832   13.5418  -24.2897 C   0  0  0  0  0  0  0  0  0  0  0  0
  -19.1265   13.7186  -23.4031 C   0  0  0  0  0  0  0  0  0  0  0  0
  -19.2602   13.2430  -22.1236 C   0  0  0  0  0  0  0  0  0  0  0  0
  -18.7906    6.4424  -20.7770 C   0  0  0  0  0  0  0  0  0  0  0  0
  -18.6101    5.0536  -20.7416 C   0  0  0  0  0  0  0  0  0  0  0  0
  -17.3841    0.2952  -17.0043 C   0  0  0  0  0  0  0  0  0  0  0  0
  -22.3722   12.7473  -24.8107 F   0  0  0  0  0  0  0  0  0  0  0  0
  -15.1145    2.3868  -14.4877 O   0  0  0  0  0  0  0  0  0  0  0  0
  -15.0116    0.8503  -12.8168 O   0  0  0  0  0  0  0  0  0  0  0  0
  -13.5618   -5.2701  -15.0609 O   0  0  0  0  0  0  0  0  0  0  0  0
  -14.3738   -7.2806  -15.6470 O   0  0  0  0  0  0  0  0  0  0  0  0
  -18.3341    2.2742  -20.5416 O   0  0  0  0  0  0  0  0  0  0  0  0
  -18.8337    8.5485  -19.6823 O   0  0  0  0  0  0  0  0  0  0  0  0
  -16.5317    0.9581  -16.1161 O   0  0  0  0  0  0  0  0  0  0  0  0
  -17.9197   13.4653  -20.9913 Cl  0  0  0  0  0  0  0  0  0  0  0  0
  1  3  1  0
 12  1  1  0
  2 11  1  0
 16  2  2  0
  2 31  1  0
  3  4  1  0
  4  6  1  0
  5  9  2  0
 10  5  1  0
  6 36  2  0
  6 37  1  0
  7  8  2  0
  7 12  1  0
 32  7  1  0
  9  8  1  0
 13 10  1  0
 10 32  2  0
 11 13  1  0
 11 38  2  0
 12 14  1  0
 14 15  1  0
 15 21  1  1
 15 40  1  0
 17 16  1  0
 18 17  2  0
 18 30  1  0
 39 18  1  0
 19 20  1  0
 19 39  1  0
 20 22  1  0
 21 34  2  0
 21 35  1  0
 22 23  1  0
 23 24  1  0
 24 25  2  0
 24 29  1  0
 25 26  1  0
 26 27  2  0
 26 33  1  0
 27 28  1  0
 28 29  2  0
 29 41  1  0
 30 31  2  0
 32 40  1  0
M  END
$$$$
