
     RDKit          3D

 41 44  0  0  0  0  0  0  0  0999 V2000
  -13.2542   21.2281  -19.8245 C   0  0  0  0  0  0  0  0  0  0  0  0
  -19.2375   15.1868  -20.5696 C   0  0  0  0  0  0  0  0  0  0  0  0
  -13.3365   22.6407  -20.1941 C   0  0  0  0  0  0  0  0  0  0  0  0
  -14.5072   23.2114  -20.8893 C   0  0  0  0  0  0  0  0  0  0  0  0
  -15.5977   17.3014  -21.9009 C   0  0  0  0  0  0  0  0  0  0  0  0
  -14.4927   24.6646  -21.0733 C   0  0  0  0  0  0  0  0  0  0  0  0
  -14.8521   19.4420  -20.2661 C   0  0  0  0  0  0  0  0  0  0  0  0
  -13.9984   18.9244  -21.2470 C   0  0  0  0  0  0  0  0  0  0  0  0
  -14.3605   17.8691  -22.0562 C   0  0  0  0  0  0  0  0  0  0  0  0
  -16.4404   17.8055  -20.9377 C   0  0  0  0  0  0  0  0  0  0  0  0
  -18.0185   15.8542  -21.0049 C   0  0  0  0  0  0  0  0  0  0  0  0
  -14.4356   20.5474  -19.4637 N   0  0  0  0  0  0  0  0  0  0  0  0
  -17.7378   17.2102  -20.7793 N   0  0  0  0  0  0  0  0  0  0  0  0
  -15.2435   20.9064  -18.3086 C   0  0  0  0  0  0  0  0  0  0  0  0
  -16.2659   19.8705  -17.9562 C   0  0  1  0  0  0  0  0  0  0  0  0
  -19.4092   13.8325  -20.7590 C   0  0  0  0  0  0  0  0  0  0  0  0
  -20.5398   13.1486  -20.3659 C   0  0  0  0  0  0  0  0  0  0  0  0
  -21.5464   13.8493  -19.7551 C   0  0  0  0  0  0  0  0  0  0  0  0
  -22.8075   11.8074  -19.3233 C   0  0  0  0  0  0  0  0  0  0  0  0
  -24.1759   11.4450  -18.8224 C   0  0  0  0  0  0  0  0  0  0  0  0
  -17.3203   20.4828  -17.1141 C   0  0  0  0  0  0  0  0  0  0  0  0
  -24.9604   10.6667  -19.8879 C   0  0  0  0  0  0  0  0  0  0  0  0
  -25.1173   11.6306  -21.0648 C   0  0  0  0  0  0  0  0  0  0  0  0
  -25.9283   10.9081  -22.0767 C   0  0  0  0  0  0  0  0  0  0  0  0
  -25.9339    9.5413  -22.1775 C   0  0  0  0  0  0  0  0  0  0  0  0
  -26.6930    8.8744  -23.1250 C   0  0  0  0  0  0  0  0  0  0  0  0
  -27.4540    9.6569  -23.9749 C   0  0  0  0  0  0  0  0  0  0  0  0
  -27.4689   11.0452  -23.8969 C   0  0  0  0  0  0  0  0  0  0  0  0
  -26.6983   11.6544  -22.9397 C   0  0  0  0  0  0  0  0  0  0  0  0
  -21.4274   15.1982  -19.5422 C   0  0  0  0  0  0  0  0  0  0  0  0
  -20.2651   15.8630  -19.9540 C   0  0  0  0  0  0  0  0  0  0  0  0
  -16.0804   18.8508  -20.1361 C   0  0  0  0  0  0  0  0  0  0  0  0
  -26.6966    7.5227  -23.2222 F   0  0  0  0  0  0  0  0  0  0  0  0
  -17.0391   20.8904  -15.9636 O   0  0  0  0  0  0  0  0  0  0  0  0
  -18.6303   20.6225  -17.5634 O   0  0  0  0  0  0  0  0  0  0  0  0
  -15.5320   25.3696  -21.1779 O   0  0  0  0  0  0  0  0  0  0  0  0
  -13.2862   25.3819  -21.1467 O   0  0  0  0  0  0  0  0  0  0  0  0
  -17.1473   15.1807  -21.6277 O   0  0  0  0  0  0  0  0  0  0  0  0
  -22.7076   13.2093  -19.3390 O   0  0  0  0  0  0  0  0  0  0  0  0
  -16.9112   19.3828  -19.1453 O   0  0  0  0  0  0  0  0  0  0  0  0
  -26.7134   13.4201  -22.8355 Cl  0  0  0  0  0  0  0  0  0  0  0  0
  1  3  1  0
 12  1  1  0
  2 11  1  0
 16  2  2  0
  2 31  1  0
  3  4  1  0
  4  6  1  0
  5  9  2  0
 10  5  1  0
  6 36  2  0
  6 37  1  0
  7  8  2  0
  7 12  1  0
 32  7  1  0
  9  8  1  0
 13 10  1  0
 10 32  2  0
 11 13  1  0
 11 38  2  0
 12 14  1  0
 14 15  1  0
 15 21  1  1
 15 40  1  0
 17 16  1  0
 18 17  2  0
 18 30  1  0
 39 18  1  0
 19 20  1  0
 19 39  1  0
 20 22  1  0
 21 34  2  0
 21 35  1  0
 22 23  1  0
 23 24  1  0
 24 25  2  0
 24 29  1  0
 25 26  1  0
 26 27  2  0
 26 33  1  0
 27 28  1  0
 28 29  2  0
 29 41  1  0
 30 31  2  0
 32 40  1  0
M  END
$$$$
