
     RDKit          3D

 41 44  0  0  0  0  0  0  0  0999 V2000
  -24.7272   15.6413  -27.3978 C   0  0  0  0  0  0  0  0  0  0  0  0
  -19.7565   14.5326  -20.4740 C   0  0  0  0  0  0  0  0  0  0  0  0
  -26.0286   16.0876  -27.8938 C   0  0  0  0  0  0  0  0  0  0  0  0
  -26.6426   17.3625  -27.4731 C   0  0  0  0  0  0  0  0  0  0  0  0
  -20.5614   14.7776  -24.7291 C   0  0  0  0  0  0  0  0  0  0  0  0
  -27.5681   17.9707  -28.4319 C   0  0  0  0  0  0  0  0  0  0  0  0
  -23.1725   15.3508  -25.5440 C   0  0  0  0  0  0  0  0  0  0  0  0
  -22.1065   15.2999  -26.4494 C   0  0  0  0  0  0  0  0  0  0  0  0
  -20.8168   15.0176  -26.0536 C   0  0  0  0  0  0  0  0  0  0  0  0
  -21.6052   14.8274  -23.8348 C   0  0  0  0  0  0  0  0  0  0  0  0
  -20.2034   15.0417  -21.7631 C   0  0  0  0  0  0  0  0  0  0  0  0
  -24.4939   15.6320  -26.0069 N   0  0  0  0  0  0  0  0  0  0  0  0
  -21.3348   14.5724  -22.4475 N   0  0  0  0  0  0  0  0  0  0  0  0
  -25.5278   15.9069  -25.0214 C   0  0  0  0  0  0  0  0  0  0  0  0
  -24.9869   16.1358  -23.6439 C   0  0  1  0  0  0  0  0  0  0  0  0
  -20.5805   13.7439  -19.7002 C   0  0  0  0  0  0  0  0  0  0  0  0
  -20.2101   13.2332  -18.4745 C   0  0  0  0  0  0  0  0  0  0  0  0
  -18.9584   13.5232  -17.9986 C   0  0  0  0  0  0  0  0  0  0  0  0
  -17.4294   13.5894  -16.1001 C   0  0  0  0  0  0  0  0  0  0  0  0
  -17.6677   13.4595  -14.6232 C   0  0  0  0  0  0  0  0  0  0  0  0
  -26.0681   15.9411  -22.6495 C   0  0  0  0  0  0  0  0  0  0  0  0
  -17.7167   11.9835  -14.2045 C   0  0  0  0  0  0  0  0  0  0  0  0
  -19.1984   11.6049  -14.2152 C   0  0  0  0  0  0  0  0  0  0  0  0
  -19.5784   11.4092  -12.7936 C   0  0  0  0  0  0  0  0  0  0  0  0
  -20.8336   11.6909  -12.3208 C   0  0  0  0  0  0  0  0  0  0  0  0
  -21.1803   11.5061  -10.9925 C   0  0  0  0  0  0  0  0  0  0  0  0
  -20.1935   11.0192  -10.1543 C   0  0  0  0  0  0  0  0  0  0  0  0
  -18.9113   10.7241  -10.6047 C   0  0  0  0  0  0  0  0  0  0  0  0
  -18.6216   10.9258  -11.9301 C   0  0  0  0  0  0  0  0  0  0  0  0
  -18.0985   14.3031  -18.7276 C   0  0  0  0  0  0  0  0  0  0  0  0
  -18.5064   14.8063  -19.9697 C   0  0  0  0  0  0  0  0  0  0  0  0
  -22.8826   15.1076  -24.2279 C   0  0  0  0  0  0  0  0  0  0  0  0
  -22.4223   11.7856  -10.5279 F   0  0  0  0  0  0  0  0  0  0  0  0
  -25.8113   15.4013  -21.5488 O   0  0  0  0  0  0  0  0  0  0  0  0
  -27.3772   16.3428  -22.8997 O   0  0  0  0  0  0  0  0  0  0  0  0
  -28.3769   17.3139  -29.1408 O   0  0  0  0  0  0  0  0  0  0  0  0
  -27.6125   19.3622  -28.6259 O   0  0  0  0  0  0  0  0  0  0  0  0
  -19.5388   15.9667  -22.3136 O   0  0  0  0  0  0  0  0  0  0  0  0
  -18.5340   13.0342  -16.7690 O   0  0  0  0  0  0  0  0  0  0  0  0
  -23.9639   15.1706  -23.3438 O   0  0  0  0  0  0  0  0  0  0  0  0
  -16.9926   10.5521  -12.5090 Cl  0  0  0  0  0  0  0  0  0  0  0  0
  1  3  1  0
 12  1  1  0
  2 11  1  0
 16  2  2  0
  2 31  1  0
  3  4  1  0
  4  6  1  0
  5  9  2  0
 10  5  1  0
  6 36  2  0
  6 37  1  0
  7  8  2  0
  7 12  1  0
 32  7  1  0
  9  8  1  0
 13 10  1  0
 10 32  2  0
 11 13  1  0
 11 38  2  0
 12 14  1  0
 14 15  1  0
 15 21  1  1
 15 40  1  0
 17 16  1  0
 18 17  2  0
 18 30  1  0
 39 18  1  0
 19 20  1  0
 19 39  1  0
 20 22  1  0
 21 34  2  0
 21 35  1  0
 22 23  1  0
 23 24  1  0
 24 25  2  0
 24 29  1  0
 25 26  1  0
 26 27  2  0
 26 33  1  0
 27 28  1  0
 28 29  2  0
 29 41  1  0
 30 31  2  0
 32 40  1  0
M  END
$$$$
