
     RDKit          3D

 41 44  0  0  0  0  0  0  0  0999 V2000
  -23.7642    9.3732  -17.8008 C   0  0  0  0  0  0  0  0  0  0  0  0
  -21.2064   14.7150  -23.9847 C   0  0  0  0  0  0  0  0  0  0  0  0
  -23.7254    9.7216  -16.3810 C   0  0  0  0  0  0  0  0  0  0  0  0
  -22.9129   10.8391  -15.8609 C   0  0  0  0  0  0  0  0  0  0  0  0
  -20.6003   11.5637  -21.0276 C   0  0  0  0  0  0  0  0  0  0  0  0
  -23.3222   11.3723  -14.5593 C   0  0  0  0  0  0  0  0  0  0  0  0
  -22.8425   10.8111  -19.5389 C   0  0  0  0  0  0  0  0  0  0  0  0
  -21.6541   10.0723  -19.5162 C   0  0  0  0  0  0  0  0  0  0  0  0
  -20.5450   10.4385  -20.2480 C   0  0  0  0  0  0  0  0  0  0  0  0
  -21.7661   12.2931  -21.0545 C   0  0  0  0  0  0  0  0  0  0  0  0
  -20.9455   13.7399  -22.9349 C   0  0  0  0  0  0  0  0  0  0  0  0
  -23.9588   10.3982  -18.7498 N   0  0  0  0  0  0  0  0  0  0  0  0
  -21.8199   13.4738  -21.8704 N   0  0  0  0  0  0  0  0  0  0  0  0
  -25.2414   11.0466  -18.9739 C   0  0  0  0  0  0  0  0  0  0  0  0
  -25.2752   11.8775  -20.2193 C   0  0  1  0  0  0  0  0  0  0  0  0
  -20.2393   15.0288  -24.9153 C   0  0  0  0  0  0  0  0  0  0  0  0
  -20.4310   15.9412  -25.9308 C   0  0  0  0  0  0  0  0  0  0  0  0
  -21.6450   16.5701  -26.0217 C   0  0  0  0  0  0  0  0  0  0  0  0
  -23.1220   18.1721  -27.1164 C   0  0  0  0  0  0  0  0  0  0  0  0
  -22.8383   19.6265  -27.3593 C   0  0  0  0  0  0  0  0  0  0  0  0
  -26.3938   12.8459  -20.1375 C   0  0  0  0  0  0  0  0  0  0  0  0
  -21.4864   19.8104  -28.0629 C   0  0  0  0  0  0  0  0  0  0  0  0
  -20.4827   20.1074  -26.9478 C   0  0  0  0  0  0  0  0  0  0  0  0
  -20.3926   21.5867  -26.8653 C   0  0  0  0  0  0  0  0  0  0  0  0
  -20.6027   22.2739  -25.6982 C   0  0  0  0  0  0  0  0  0  0  0  0
  -20.5174   23.6548  -25.6294 C   0  0  0  0  0  0  0  0  0  0  0  0
  -20.2073   24.3178  -26.8033 C   0  0  0  0  0  0  0  0  0  0  0  0
  -19.9886   23.6482  -28.0023 C   0  0  0  0  0  0  0  0  0  0  0  0
  -20.0857   22.2801  -28.0141 C   0  0  0  0  0  0  0  0  0  0  0  0
  -22.6420   16.2952  -25.1220 C   0  0  0  0  0  0  0  0  0  0  0  0
  -22.4143   15.3624  -24.1019 C   0  0  0  0  0  0  0  0  0  0  0  0
  -22.8645   11.9291  -20.3294 C   0  0  0  0  0  0  0  0  0  0  0  0
  -20.7257   24.3315  -24.4739 F   0  0  0  0  0  0  0  0  0  0  0  0
  -27.5206   12.4633  -19.7465 O   0  0  0  0  0  0  0  0  0  0  0  0
  -26.2336   14.1843  -20.4850 O   0  0  0  0  0  0  0  0  0  0  0  0
  -23.9837   12.4347  -14.4121 O   0  0  0  0  0  0  0  0  0  0  0  0
  -22.9933   10.7141  -13.3616 O   0  0  0  0  0  0  0  0  0  0  0  0
  -19.8651   13.0829  -22.9719 O   0  0  0  0  0  0  0  0  0  0  0  0
  -21.8916   17.4985  -27.0259 O   0  0  0  0  0  0  0  0  0  0  0  0
  -24.0652   12.6455  -20.3388 O   0  0  0  0  0  0  0  0  0  0  0  0
  -19.8084   21.4229  -29.5362 Cl  0  0  0  0  0  0  0  0  0  0  0  0
  1  3  1  0
 12  1  1  0
  2 11  1  0
 16  2  2  0
  2 31  1  0
  3  4  1  0
  4  6  1  0
  5  9  2  0
 10  5  1  0
  6 36  2  0
  6 37  1  0
  7  8  2  0
  7 12  1  0
 32  7  1  0
  9  8  1  0
 13 10  1  0
 10 32  2  0
 11 13  1  0
 11 38  2  0
 12 14  1  0
 14 15  1  0
 15 21  1  1
 15 40  1  0
 17 16  1  0
 18 17  2  0
 18 30  1  0
 39 18  1  0
 19 20  1  0
 19 39  1  0
 20 22  1  0
 21 34  2  0
 21 35  1  0
 22 23  1  0
 23 24  1  0
 24 25  2  0
 24 29  1  0
 25 26  1  0
 26 27  2  0
 26 33  1  0
 27 28  1  0
 28 29  2  0
 29 41  1  0
 30 31  2  0
 32 40  1  0
M  END
$$$$
