
     RDKit          3D

 41 44  0  0  0  0  0  0  0  0999 V2000
  -25.6910   12.9169  -19.3012 C   0  0  0  0  0  0  0  0  0  0  0  0
  -18.4695   14.0346  -23.4864 C   0  0  0  0  0  0  0  0  0  0  0  0
  -26.0206   11.6374  -18.6741 C   0  0  0  0  0  0  0  0  0  0  0  0
  -26.4380   10.4560  -19.4548 C   0  0  0  0  0  0  0  0  0  0  0  0
  -22.6256   12.3922  -23.2445 C   0  0  0  0  0  0  0  0  0  0  0  0
  -26.7506    9.2556  -18.6756 C   0  0  0  0  0  0  0  0  0  0  0  0
  -23.7297   12.9822  -20.7458 C   0  0  0  0  0  0  0  0  0  0  0  0
  -24.5189   12.5839  -21.8309 C   0  0  0  0  0  0  0  0  0  0  0  0
  -23.9802   12.2915  -23.0654 C   0  0  0  0  0  0  0  0  0  0  0  0
  -21.8453   12.7842  -22.1818 C   0  0  0  0  0  0  0  0  0  0  0  0
  -19.8176   13.4839  -23.4862 C   0  0  0  0  0  0  0  0  0  0  0  0
  -24.3348   13.2586  -19.4822 N   0  0  0  0  0  0  0  0  0  0  0  0
  -20.4255   12.8860  -22.3719 N   0  0  0  0  0  0  0  0  0  0  0  0
  -23.5254   13.8899  -18.4515 C   0  0  0  0  0  0  0  0  0  0  0  0
  -22.2248   14.4256  -18.9653 C   0  0  1  0  0  0  0  0  0  0  0  0
  -17.8469   14.3817  -24.6661 C   0  0  0  0  0  0  0  0  0  0  0  0
  -16.5744   14.9085  -24.7262 C   0  0  0  0  0  0  0  0  0  0  0  0
  -15.8910   15.0977  -23.5538 C   0  0  0  0  0  0  0  0  0  0  0  0
  -14.0367   16.1651  -24.7237 C   0  0  0  0  0  0  0  0  0  0  0  0
  -12.6723   16.6871  -24.3764 C   0  0  0  0  0  0  0  0  0  0  0  0
  -21.2863   14.6141  -17.8342 C   0  0  0  0  0  0  0  0  0  0  0  0
  -12.7667   18.0715  -23.7199 C   0  0  0  0  0  0  0  0  0  0  0  0
  -12.6315   19.0764  -24.8648 C   0  0  0  0  0  0  0  0  0  0  0  0
  -12.9822   20.3988  -24.2887 C   0  0  0  0  0  0  0  0  0  0  0  0
  -12.0412   21.2496  -23.7700 C   0  0  0  0  0  0  0  0  0  0  0  0
  -12.3766   22.4819  -23.2335 C   0  0  0  0  0  0  0  0  0  0  0  0
  -13.7179   22.8204  -23.2441 C   0  0  0  0  0  0  0  0  0  0  0  0
  -14.6952   21.9784  -23.7634 C   0  0  0  0  0  0  0  0  0  0  0  0
  -14.3078   20.7693  -24.2824 C   0  0  0  0  0  0  0  0  0  0  0  0
  -16.4633   14.7695  -22.3522 C   0  0  0  0  0  0  0  0  0  0  0  0
  -17.7584   14.2361  -22.3263 C   0  0  0  0  0  0  0  0  0  0  0  0
  -22.3802   13.0741  -20.9592 C   0  0  0  0  0  0  0  0  0  0  0  0
  -11.4439   23.3212  -22.7213 F   0  0  0  0  0  0  0  0  0  0  0  0
  -20.1205   15.0160  -18.0534 O   0  0  0  0  0  0  0  0  0  0  0  0
  -21.6606   14.3564  -16.5185 O   0  0  0  0  0  0  0  0  0  0  0  0
  -25.8900    8.4088  -18.3145 O   0  0  0  0  0  0  0  0  0  0  0  0
  -28.0654    8.9661  -18.2715 O   0  0  0  0  0  0  0  0  0  0  0  0
  -20.4966   13.5411  -24.5521 O   0  0  0  0  0  0  0  0  0  0  0  0
  -14.6054   15.6254  -23.5571 O   0  0  0  0  0  0  0  0  0  0  0  0
  -21.6156   13.4798  -19.8611 O   0  0  0  0  0  0  0  0  0  0  0  0
  -15.5464   19.6942  -24.9446 Cl  0  0  0  0  0  0  0  0  0  0  0  0
  1  3  1  0
 12  1  1  0
  2 11  1  0
 16  2  2  0
  2 31  1  0
  3  4  1  0
  4  6  1  0
  5  9  2  0
 10  5  1  0
  6 36  2  0
  6 37  1  0
  7  8  2  0
  7 12  1  0
 32  7  1  0
  9  8  1  0
 13 10  1  0
 10 32  2  0
 11 13  1  0
 11 38  2  0
 12 14  1  0
 14 15  1  0
 15 21  1  1
 15 40  1  0
 17 16  1  0
 18 17  2  0
 18 30  1  0
 39 18  1  0
 19 20  1  0
 19 39  1  0
 20 22  1  0
 21 34  2  0
 21 35  1  0
 22 23  1  0
 23 24  1  0
 24 25  2  0
 24 29  1  0
 25 26  1  0
 26 27  2  0
 26 33  1  0
 27 28  1  0
 28 29  2  0
 29 41  1  0
 30 31  2  0
 32 40  1  0
M  END
$$$$
