
     RDKit          3D

 41 44  0  0  0  0  0  0  0  0999 V2000
  -14.6979   22.3422  -17.2183 C   0  0  0  0  0  0  0  0  0  0  0  0
  -18.9599   16.4538  -21.7821 C   0  0  0  0  0  0  0  0  0  0  0  0
  -14.8224   23.7608  -17.5514 C   0  0  0  0  0  0  0  0  0  0  0  0
  -15.3496   24.2271  -18.8491 C   0  0  0  0  0  0  0  0  0  0  0  0
  -15.5733   19.0580  -20.9155 C   0  0  0  0  0  0  0  0  0  0  0  0
  -15.4439   25.6797  -19.0134 C   0  0  0  0  0  0  0  0  0  0  0  0
  -15.7436   20.6481  -18.6235 C   0  0  0  0  0  0  0  0  0  0  0  0
  -14.5595   20.5324  -19.3606 C   0  0  0  0  0  0  0  0  0  0  0  0
  -14.4694   19.7500  -20.4918 C   0  0  0  0  0  0  0  0  0  0  0  0
  -16.7394   19.1671  -20.1942 C   0  0  0  0  0  0  0  0  0  0  0  0
  -17.8565   17.3764  -21.5535 C   0  0  0  0  0  0  0  0  0  0  0  0
  -15.7896   21.4847  -17.4671 N   0  0  0  0  0  0  0  0  0  0  0  0
  -17.8956   18.4428  -20.6426 N   0  0  0  0  0  0  0  0  0  0  0  0
  -16.9535   21.4003  -16.5987 C   0  0  0  0  0  0  0  0  0  0  0  0
  -17.8293   20.2224  -16.8954 C   0  0  1  0  0  0  0  0  0  0  0  0
  -18.9083   15.5275  -22.8015 C   0  0  0  0  0  0  0  0  0  0  0  0
  -19.9210   14.6293  -23.0626 C   0  0  0  0  0  0  0  0  0  0  0  0
  -21.0376   14.6568  -22.2691 C   0  0  0  0  0  0  0  0  0  0  0  0
  -22.0005   12.7543  -23.4522 C   0  0  0  0  0  0  0  0  0  0  0  0
  -22.6704   11.5309  -22.8960 C   0  0  0  0  0  0  0  0  0  0  0  0
  -19.1778   20.4531  -16.3261 C   0  0  0  0  0  0  0  0  0  0  0  0
  -23.9094   11.9115  -22.0735 C   0  0  0  0  0  0  0  0  0  0  0  0
  -24.9019   10.7658  -22.2762 C   0  0  0  0  0  0  0  0  0  0  0  0
  -25.6306   10.6268  -20.9904 C   0  0  0  0  0  0  0  0  0  0  0  0
  -25.8770    9.4095  -20.4108 C   0  0  0  0  0  0  0  0  0  0  0  0
  -26.5584    9.2880  -19.2109 C   0  0  0  0  0  0  0  0  0  0  0  0
  -26.9842   10.4621  -18.6162 C   0  0  0  0  0  0  0  0  0  0  0  0
  -26.7491   11.7114  -19.1799 C   0  0  0  0  0  0  0  0  0  0  0  0
  -26.0695   11.7742  -20.3696 C   0  0  0  0  0  0  0  0  0  0  0  0
  -21.1408   15.5579  -21.2413 C   0  0  0  0  0  0  0  0  0  0  0  0
  -20.0933   16.4571  -21.0029 C   0  0  0  0  0  0  0  0  0  0  0  0
  -16.8274   19.9422  -19.0734 C   0  0  0  0  0  0  0  0  0  0  0  0
  -26.8004    8.0829  -18.6402 F   0  0  0  0  0  0  0  0  0  0  0  0
  -19.3906   20.2165  -15.1147 O   0  0  0  0  0  0  0  0  0  0  0  0
  -20.2307   20.9303  -17.1016 O   0  0  0  0  0  0  0  0  0  0  0  0
  -16.4822   26.3488  -18.7640 O   0  0  0  0  0  0  0  0  0  0  0  0
  -14.3525   26.4377  -19.4720 O   0  0  0  0  0  0  0  0  0  0  0  0
  -16.7875   17.2187  -22.2114 O   0  0  0  0  0  0  0  0  0  0  0  0
  -22.0880   13.7738  -22.4885 O   0  0  0  0  0  0  0  0  0  0  0  0
  -17.9955   20.0703  -18.3157 O   0  0  0  0  0  0  0  0  0  0  0  0
  -25.7672   13.3605  -21.0913 Cl  0  0  0  0  0  0  0  0  0  0  0  0
  1  3  1  0
 12  1  1  0
  2 11  1  0
 16  2  2  0
  2 31  1  0
  3  4  1  0
  4  6  1  0
  5  9  2  0
 10  5  1  0
  6 36  2  0
  6 37  1  0
  7  8  2  0
  7 12  1  0
 32  7  1  0
  9  8  1  0
 13 10  1  0
 10 32  2  0
 11 13  1  0
 11 38  2  0
 12 14  1  0
 14 15  1  0
 15 21  1  1
 15 40  1  0
 17 16  1  0
 18 17  2  0
 18 30  1  0
 39 18  1  0
 19 20  1  0
 19 39  1  0
 20 22  1  0
 21 34  2  0
 21 35  1  0
 22 23  1  0
 23 24  1  0
 24 25  2  0
 24 29  1  0
 25 26  1  0
 26 27  2  0
 26 33  1  0
 27 28  1  0
 28 29  2  0
 29 41  1  0
 30 31  2  0
 32 40  1  0
M  END
$$$$
