
     RDKit          3D

 41 44  0  0  0  0  0  0  0  0999 V2000
  -16.0056   23.2239  -15.8719 C   0  0  0  0  0  0  0  0  0  0  0  0
  -21.0233   16.9629  -19.0081 C   0  0  0  0  0  0  0  0  0  0  0  0
  -16.3927   24.6088  -15.6052 C   0  0  0  0  0  0  0  0  0  0  0  0
  -17.7520   25.1179  -15.8745 C   0  0  0  0  0  0  0  0  0  0  0  0
  -19.3381   19.4668  -15.8791 C   0  0  0  0  0  0  0  0  0  0  0  0
  -17.8666   26.5681  -16.0462 C   0  0  0  0  0  0  0  0  0  0  0  0
  -17.5558   21.4930  -16.6060 C   0  0  0  0  0  0  0  0  0  0  0  0
  -17.9822   21.3181  -15.2845 C   0  0  0  0  0  0  0  0  0  0  0  0
  -18.8608   20.3206  -14.9199 C   0  0  0  0  0  0  0  0  0  0  0  0
  -18.9232   19.6347  -17.1797 C   0  0  0  0  0  0  0  0  0  0  0  0
  -20.4422   17.7967  -17.9651 C   0  0  0  0  0  0  0  0  0  0  0  0
  -16.6315   22.5323  -16.9297 N   0  0  0  0  0  0  0  0  0  0  0  0
  -19.4230   18.7362  -18.1824 N   0  0  0  0  0  0  0  0  0  0  0  0
  -16.3928   22.8328  -18.3328 C   0  0  0  0  0  0  0  0  0  0  0  0
  -17.3802   22.1848  -19.2534 C   0  0  1  0  0  0  0  0  0  0  0  0
  -20.6200   17.0870  -20.3202 C   0  0  0  0  0  0  0  0  0  0  0  0
  -21.1332   16.3240  -21.3473 C   0  0  0  0  0  0  0  0  0  0  0  0
  -22.0941   15.3933  -21.0509 C   0  0  0  0  0  0  0  0  0  0  0  0
  -22.9052   13.2324  -21.8377 C   0  0  0  0  0  0  0  0  0  0  0  0
  -23.4401   12.6589  -23.1182 C   0  0  0  0  0  0  0  0  0  0  0  0
  -16.8216   22.1397  -20.6251 C   0  0  0  0  0  0  0  0  0  0  0  0
  -22.3243   11.9733  -23.9191 C   0  0  0  0  0  0  0  0  0  0  0  0
  -21.4031   13.1018  -24.3845 C   0  0  0  0  0  0  0  0  0  0  0  0
  -20.2407   12.4389  -25.0273 C   0  0  0  0  0  0  0  0  0  0  0  0
  -19.0162   12.3458  -24.4188 C   0  0  0  0  0  0  0  0  0  0  0  0
  -17.9360   11.7261  -25.0255 C   0  0  0  0  0  0  0  0  0  0  0  0
  -18.1494   11.1993  -26.2866 C   0  0  0  0  0  0  0  0  0  0  0  0
  -19.3801   11.2782  -26.9292 C   0  0  0  0  0  0  0  0  0  0  0  0
  -20.4161   11.9029  -26.2828 C   0  0  0  0  0  0  0  0  0  0  0  0
  -22.5315   15.2286  -19.7623 C   0  0  0  0  0  0  0  0  0  0  0  0
  -21.9892   16.0204  -18.7419 C   0  0  0  0  0  0  0  0  0  0  0  0
  -18.0530   20.6236  -17.5399 C   0  0  0  0  0  0  0  0  0  0  0  0
  -16.7264   11.6355  -24.4213 F   0  0  0  0  0  0  0  0  0  0  0  0
  -16.8519   21.0690  -21.2743 O   0  0  0  0  0  0  0  0  0  0  0  0
  -16.2565   23.2613  -21.2254 O   0  0  0  0  0  0  0  0  0  0  0  0
  -18.6404   27.1183  -16.8749 O   0  0  0  0  0  0  0  0  0  0  0  0
  -17.0997   27.4600  -15.2767 O   0  0  0  0  0  0  0  0  0  0  0  0
  -20.8741   17.6775  -16.7820 O   0  0  0  0  0  0  0  0  0  0  0  0
  -22.6453   14.5977  -22.0481 O   0  0  0  0  0  0  0  0  0  0  0  0
  -17.6161   20.8239  -18.8528 O   0  0  0  0  0  0  0  0  0  0  0  0
  -21.9840   12.0061  -27.0950 Cl  0  0  0  0  0  0  0  0  0  0  0  0
  1  3  1  0
 12  1  1  0
  2 11  1  0
 16  2  2  0
  2 31  1  0
  3  4  1  0
  4  6  1  0
  5  9  2  0
 10  5  1  0
  6 36  2  0
  6 37  1  0
  7  8  2  0
  7 12  1  0
 32  7  1  0
  9  8  1  0
 13 10  1  0
 10 32  2  0
 11 13  1  0
 11 38  2  0
 12 14  1  0
 14 15  1  0
 15 21  1  6
 15 40  1  0
 17 16  1  0
 18 17  2  0
 18 30  1  0
 39 18  1  0
 19 20  1  0
 19 39  1  0
 20 22  1  0
 21 34  2  0
 21 35  1  0
 22 23  1  0
 23 24  1  0
 24 25  2  0
 24 29  1  0
 25 26  1  0
 26 27  2  0
 26 33  1  0
 27 28  1  0
 28 29  2  0
 29 41  1  0
 30 31  2  0
 32 40  1  0
M  END
$$$$
