
     RDKit          3D

 41 44  0  0  0  0  0  0  0  0999 V2000
  -15.1819   24.0265  -17.7627 C   0  0  0  0  0  0  0  0  0  0  0  0
  -18.9654   16.6701  -19.9089 C   0  0  0  0  0  0  0  0  0  0  0  0
  -14.4392   24.5523  -18.9075 C   0  0  0  0  0  0  0  0  0  0  0  0
  -15.0801   24.8314  -20.2079 C   0  0  0  0  0  0  0  0  0  0  0  0
  -15.8865   19.0572  -17.9371 C   0  0  0  0  0  0  0  0  0  0  0  0
  -14.5110   25.9435  -20.9728 C   0  0  0  0  0  0  0  0  0  0  0  0
  -16.2186   21.8318  -17.9780 C   0  0  0  0  0  0  0  0  0  0  0  0
  -15.0359   21.2321  -17.5303 C   0  0  0  0  0  0  0  0  0  0  0  0
  -14.8662   19.8645  -17.5080 C   0  0  0  0  0  0  0  0  0  0  0  0
  -17.0515   19.6411  -18.3772 C   0  0  0  0  0  0  0  0  0  0  0  0
  -17.9546   17.4519  -19.2104 C   0  0  0  0  0  0  0  0  0  0  0  0
  -16.3389   23.2546  -17.9964 N   0  0  0  0  0  0  0  0  0  0  0  0
  -18.1181   18.7922  -18.8291 N   0  0  0  0  0  0  0  0  0  0  0  0
  -17.6501   23.8344  -18.2421 C   0  0  0  0  0  0  0  0  0  0  0  0
  -18.7634   22.8360  -18.1623 C   0  0  1  0  0  0  0  0  0  0  0  0
  -19.8908   17.2801  -20.7282 C   0  0  0  0  0  0  0  0  0  0  0  0
  -20.8675   16.5909  -21.4148 C   0  0  0  0  0  0  0  0  0  0  0  0
  -20.9233   15.2287  -21.2773 C   0  0  0  0  0  0  0  0  0  0  0  0
  -22.6558   15.0432  -22.9833 C   0  0  0  0  0  0  0  0  0  0  0  0
  -23.9893   14.3531  -22.9962 C   0  0  0  0  0  0  0  0  0  0  0  0
  -19.9560   23.3681  -18.8625 C   0  0  0  0  0  0  0  0  0  0  0  0
  -23.8191   12.8364  -23.1608 C   0  0  0  0  0  0  0  0  0  0  0  0
  -24.1546   12.2371  -21.7944 C   0  0  0  0  0  0  0  0  0  0  0  0
  -24.1031   10.7643  -21.9725 C   0  0  0  0  0  0  0  0  0  0  0  0
  -23.9211    9.9010  -20.9236 C   0  0  0  0  0  0  0  0  0  0  0  0
  -23.8735    8.5277  -21.0981 C   0  0  0  0  0  0  0  0  0  0  0  0
  -24.0192    8.0599  -22.3917 C   0  0  0  0  0  0  0  0  0  0  0  0
  -24.2052    8.9108  -23.4757 C   0  0  0  0  0  0  0  0  0  0  0  0
  -24.2445   10.2626  -23.2464 C   0  0  0  0  0  0  0  0  0  0  0  0
  -20.0270   14.5715  -20.4750 C   0  0  0  0  0  0  0  0  0  0  0  0
  -19.0467   15.3021  -19.7910 C   0  0  0  0  0  0  0  0  0  0  0  0
  -17.2188   20.9962  -18.3984 C   0  0  0  0  0  0  0  0  0  0  0  0
  -23.6935    7.6765  -20.0589 F   0  0  0  0  0  0  0  0  0  0  0  0
  -20.9785   22.6544  -18.9802 O   0  0  0  0  0  0  0  0  0  0  0  0
  -19.9796   24.6514  -19.4015 O   0  0  0  0  0  0  0  0  0  0  0  0
  -13.2891   26.2517  -20.9607 O   0  0  0  0  0  0  0  0  0  0  0  0
  -15.3143   26.7578  -21.7898 O   0  0  0  0  0  0  0  0  0  0  0  0
  -16.8531   16.9005  -18.9222 O   0  0  0  0  0  0  0  0  0  0  0  0
  -21.8877   14.4852  -21.9468 O   0  0  0  0  0  0  0  0  0  0  0  0
  -18.3914   21.6203  -18.8347 O   0  0  0  0  0  0  0  0  0  0  0  0
  -24.4812   11.3499  -24.6213 Cl  0  0  0  0  0  0  0  0  0  0  0  0
  1  3  1  0
 12  1  1  0
  2 11  1  0
 16  2  2  0
  2 31  1  0
  3  4  1  0
  4  6  1  0
  5  9  2  0
 10  5  1  0
  6 36  2  0
  6 37  1  0
  7  8  2  0
  7 12  1  0
 32  7  1  0
  9  8  1  0
 13 10  1  0
 10 32  2  0
 11 13  1  0
 11 38  2  0
 12 14  1  0
 14 15  1  0
 15 21  1  6
 15 40  1  0
 17 16  1  0
 18 17  2  0
 18 30  1  0
 39 18  1  0
 19 20  1  0
 19 39  1  0
 20 22  1  0
 21 34  2  0
 21 35  1  0
 22 23  1  0
 23 24  1  0
 24 25  2  0
 24 29  1  0
 25 26  1  0
 26 27  2  0
 26 33  1  0
 27 28  1  0
 28 29  2  0
 29 41  1  0
 30 31  2  0
 32 40  1  0
M  END
$$$$
