
     RDKit          3D

 41 44  0  0  0  0  0  0  0  0999 V2000
  -14.9380  -13.0803  -11.2247 C   0  0  0  0  0  0  0  0  0  0  0  0
  -15.2520   -5.1301  -14.2732 C   0  0  0  0  0  0  0  0  0  0  0  0
  -13.7839  -13.5866  -10.4828 C   0  0  0  0  0  0  0  0  0  0  0  0
  -13.0175  -14.7702  -10.9201 C   0  0  0  0  0  0  0  0  0  0  0  0
  -14.4510   -8.0823  -11.1581 C   0  0  0  0  0  0  0  0  0  0  0  0
  -11.6797  -14.9126  -10.3406 C   0  0  0  0  0  0  0  0  0  0  0  0
  -14.6246  -10.7658  -11.9194 C   0  0  0  0  0  0  0  0  0  0  0  0
  -14.5231  -10.3796  -10.5780 C   0  0  0  0  0  0  0  0  0  0  0  0
  -14.4374   -9.0580  -10.1964 C   0  0  0  0  0  0  0  0  0  0  0  0
  -14.5495   -8.4562  -12.4781 C   0  0  0  0  0  0  0  0  0  0  0  0
  -14.8878   -6.0875  -13.2380 C   0  0  0  0  0  0  0  0  0  0  0  0
  -14.7269  -12.1483  -12.2619 N   0  0  0  0  0  0  0  0  0  0  0  0
  -14.5664   -7.4310  -13.4837 N   0  0  0  0  0  0  0  0  0  0  0  0
  -14.5953  -12.5256  -13.6606 C   0  0  0  0  0  0  0  0  0  0  0  0
  -14.0822  -11.4172  -14.5270 C   0  0  1  0  0  0  0  0  0  0  0  0
  -15.4966   -3.8099  -13.9618 C   0  0  0  0  0  0  0  0  0  0  0  0
  -15.8425   -2.8605  -14.8996 C   0  0  0  0  0  0  0  0  0  0  0  0
  -15.9494   -3.2469  -16.2098 C   0  0  0  0  0  0  0  0  0  0  0  0
  -16.6585   -1.0108  -16.8759 C   0  0  0  0  0  0  0  0  0  0  0  0
  -17.0031   -0.3016  -18.1538 C   0  0  0  0  0  0  0  0  0  0  0  0
  -14.4133  -11.7027  -15.9428 C   0  0  0  0  0  0  0  0  0  0  0  0
  -17.0337    1.2188  -17.9448 C   0  0  0  0  0  0  0  0  0  0  0  0
  -17.4060    1.8106  -19.3050 C   0  0  0  0  0  0  0  0  0  0  0  0
  -17.4752    3.2797  -19.1042 C   0  0  0  0  0  0  0  0  0  0  0  0
  -16.3596    4.0759  -19.0975 C   0  0  0  0  0  0  0  0  0  0  0  0
  -16.4323    5.4463  -18.9088 C   0  0  0  0  0  0  0  0  0  0  0  0
  -17.6942    5.9825  -18.7253 C   0  0  0  0  0  0  0  0  0  0  0  0
  -18.8441    5.2005  -18.7271 C   0  0  0  0  0  0  0  0  0  0  0  0
  -18.7148    3.8485  -18.9184 C   0  0  0  0  0  0  0  0  0  0  0  0
  -15.7169   -4.5476  -16.5745 C   0  0  0  0  0  0  0  0  0  0  0  0
  -15.3672   -5.4876  -15.5964 C   0  0  0  0  0  0  0  0  0  0  0  0
  -14.6339   -9.7660  -12.8551 C   0  0  0  0  0  0  0  0  0  0  0  0
  -15.3274    6.2310  -18.9028 F   0  0  0  0  0  0  0  0  0  0  0  0
  -14.2681  -12.8619  -16.3943 O   0  0  0  0  0  0  0  0  0  0  0  0
  -14.8867  -10.7135  -16.8003 O   0  0  0  0  0  0  0  0  0  0  0  0
  -11.3395  -14.4229   -9.2304 O   0  0  0  0  0  0  0  0  0  0  0  0
  -10.6651  -15.6233  -11.0049 O   0  0  0  0  0  0  0  0  0  0  0  0
  -14.8547   -5.6972  -12.0351 O   0  0  0  0  0  0  0  0  0  0  0  0
  -16.2952   -2.3305  -17.1956 O   0  0  0  0  0  0  0  0  0  0  0  0
  -14.7298  -10.1789  -14.1875 O   0  0  0  0  0  0  0  0  0  0  0  0
  -20.1739    2.8486  -18.9220 Cl  0  0  0  0  0  0  0  0  0  0  0  0
  1  3  1  0
 12  1  1  0
  2 11  1  0
 16  2  2  0
  2 31  1  0
  3  4  1  0
  4  6  1  0
  5  9  2  0
 10  5  1  0
  6 36  2  0
  6 37  1  0
  7  8  2  0
  7 12  1  0
 32  7  1  0
  9  8  1  0
 13 10  1  0
 10 32  2  0
 11 13  1  0
 11 38  2  0
 12 14  1  0
 14 15  1  0
 15 21  1  6
 15 40  1  0
 17 16  1  0
 18 17  2  0
 18 30  1  0
 39 18  1  0
 19 20  1  0
 19 39  1  0
 20 22  1  0
 21 34  2  0
 21 35  1  0
 22 23  1  0
 23 24  1  0
 24 25  2  0
 24 29  1  0
 25 26  1  0
 26 27  2  0
 26 33  1  0
 27 28  1  0
 28 29  2  0
 29 41  1  0
 30 31  2  0
 32 40  1  0
M  END
$$$$
