
     RDKit          3D

 26 29  0  0  0  0  0  0  0  0999 V2000
  -65.8092   37.9303  -22.9974 C   0  0  0  0  0  0  0  0  0  0  0  0
  -62.1584   30.7532  -28.6424 C   0  0  0  0  0  0  0  0  0  0  0  0
  -61.9055   31.0596  -31.0229 C   0  0  0  0  0  0  0  0  0  0  0  0
  -61.9437   29.6900  -31.1643 C   0  0  0  0  0  0  0  0  0  0  0  0
  -62.0857   28.8609  -30.0739 C   0  0  0  0  0  0  0  0  0  0  0  0
  -66.0837   35.4684  -22.7948 C   0  0  0  0  0  0  0  0  0  0  0  0
  -64.6552   33.8898  -23.9223 C   0  0  0  0  0  0  0  0  0  0  0  0
  -63.9943   34.9853  -24.4329 C   0  0  0  0  0  0  0  0  0  0  0  0
  -64.3496   36.2889  -24.1469 C   0  0  0  0  0  0  0  0  0  0  0  0
  -64.2912   32.5183  -24.2233 C   0  0  0  0  0  0  0  0  0  0  0  0
  -62.2684   31.2811  -27.3578 C   0  0  0  0  0  0  0  0  0  0  0  0
  -62.2290   32.7602  -27.2502 C   0  0  0  0  0  0  0  0  0  0  0  0
  -62.4064   30.4099  -26.3226 C   0  0  0  0  0  0  0  0  0  0  0  0
  -65.4163   36.5580  -23.3107 C   0  0  0  0  0  0  0  0  0  0  0  0
  -62.5199   30.9509  -24.9420 C   0  0  0  0  0  0  0  0  0  0  0  0
  -62.6321   33.2695  -25.9066 C   0  0  0  0  0  0  0  0  0  0  0  0
  -66.8825   38.2401  -22.1799 O   0  0  0  0  0  0  0  0  0  0  0  0
  -65.1557   38.8821  -23.4832 O   0  0  0  0  0  0  0  0  0  0  0  0
  -65.7296   34.1645  -23.0798 C   0  0  0  0  0  0  0  0  0  0  0  0
  -64.9523   31.5299  -23.8009 O   0  0  0  0  0  0  0  0  0  0  0  0
  -63.1525   32.2432  -25.0227 N   0  0  0  0  0  0  0  0  0  0  0  0
  -62.4359   29.0333  -26.5483 C   0  0  0  0  0  0  0  0  0  0  0  0
  -62.5652   28.2634  -25.5630 O   0  0  0  0  0  0  0  0  0  0  0  0
  -62.3297   28.5879  -27.7674 O   0  0  0  0  0  0  0  0  0  0  0  0
  -62.1952   29.3990  -28.7886 C   0  0  0  0  0  0  0  0  0  0  0  0
  -62.0149   31.5737  -29.7484 C   0  0  0  0  0  0  0  0  0  0  0  0
 14  1  1  0
  1 17  1  0
  1 18  2  0
 11  2  1  0
  2 25  1  0
  2 26  2  0
  3  4  2  0
 26  3  1  0
  5  4  1  0
 25  5  2  0
  6 14  2  0
 19  6  1  0
  7  8  1  0
 10  7  1  0
  7 19  2  0
  8  9  2  0
  9 14  1  0
 10 20  2  0
 21 10  1  0
 11 12  1  0
 13 11  2  0
 12 16  1  0
 15 13  1  0
 13 22  1  0
 15 21  1  0
 16 21  1  0
 22 23  2  0
 22 24  1  0
 24 25  1  0
M  END
$$$$
