
     RDKit          3D

 26 29  0  0  0  0  0  0  0  0999 V2000
  -65.5013   31.6971  -21.9024 C   0  0  0  0  0  0  0  0  0  0  0  0
  -63.5482   33.6673  -31.0966 C   0  0  0  0  0  0  0  0  0  0  0  0
  -64.9534   35.2821  -32.2112 C   0  0  0  0  0  0  0  0  0  0  0  0
  -64.6345   34.6769  -33.4068 C   0  0  0  0  0  0  0  0  0  0  0  0
  -63.7910   33.5895  -33.4567 C   0  0  0  0  0  0  0  0  0  0  0  0
  -64.8946   32.2910  -24.2383 C   0  0  0  0  0  0  0  0  0  0  0  0
  -63.5274   30.8858  -25.6385 C   0  0  0  0  0  0  0  0  0  0  0  0
  -63.4706   30.0223  -24.5668 C   0  0  0  0  0  0  0  0  0  0  0  0
  -64.0979   30.2652  -23.3606 C   0  0  0  0  0  0  0  0  0  0  0  0
  -62.8661   30.6397  -26.9059 C   0  0  0  0  0  0  0  0  0  0  0  0
  -62.9910   33.1459  -29.9310 C   0  0  0  0  0  0  0  0  0  0  0  0
  -63.3649   33.8226  -28.6649 C   0  0  0  0  0  0  0  0  0  0  0  0
  -62.1657   32.0711  -30.0468 C   0  0  0  0  0  0  0  0  0  0  0  0
  -64.8317   31.4208  -23.1718 C   0  0  0  0  0  0  0  0  0  0  0  0
  -61.5551   31.5014  -28.8163 C   0  0  0  0  0  0  0  0  0  0  0  0
  -62.9738   33.0582  -27.4442 C   0  0  0  0  0  0  0  0  0  0  0  0
  -65.4624   30.8299  -20.8242 O   0  0  0  0  0  0  0  0  0  0  0  0
  -66.1451   32.7631  -21.7673 O   0  0  0  0  0  0  0  0  0  0  0  0
  -64.2679   32.0493  -25.4449 C   0  0  0  0  0  0  0  0  0  0  0  0
  -62.6214   29.4774  -27.3319 O   0  0  0  0  0  0  0  0  0  0  0  0
  -62.4667   31.7277  -27.7233 N   0  0  0  0  0  0  0  0  0  0  0  0
  -61.8911   31.5144  -31.2964 C   0  0  0  0  0  0  0  0  0  0  0  0
  -61.1230   30.5213  -31.3585 O   0  0  0  0  0  0  0  0  0  0  0  0
  -62.4363   32.0370  -32.3574 O   0  0  0  0  0  0  0  0  0  0  0  0
  -63.2361   33.0731  -32.2825 C   0  0  0  0  0  0  0  0  0  0  0  0
  -64.3977   34.7600  -31.0626 C   0  0  0  0  0  0  0  0  0  0  0  0
 14  1  1  0
  1 17  1  0
  1 18  2  0
 11  2  1  0
  2 25  1  0
  2 26  2  0
  3  4  2  0
 26  3  1  0
  5  4  1  0
 25  5  2  0
  6 14  2  0
 19  6  1  0
  7  8  1  0
 10  7  1  0
  7 19  2  0
  8  9  2  0
  9 14  1  0
 10 20  2  0
 21 10  1  0
 11 12  1  0
 13 11  2  0
 12 16  1  0
 15 13  1  0
 13 22  1  0
 15 21  1  0
 16 21  1  0
 22 23  2  0
 22 24  1  0
 24 25  1  0
M  END
$$$$
