
     RDKit          3D

 26 29  0  0  0  0  0  0  0  0999 V2000
  -63.9847   30.1595  -21.2738 C   0  0  0  0  0  0  0  0  0  0  0  0
  -63.6046   35.7292  -29.5206 C   0  0  0  0  0  0  0  0  0  0  0  0
  -64.1977   34.8997  -31.7080 C   0  0  0  0  0  0  0  0  0  0  0  0
  -63.4622   35.9279  -32.2549 C   0  0  0  0  0  0  0  0  0  0  0  0
  -62.8082   36.8427  -31.4599 C   0  0  0  0  0  0  0  0  0  0  0  0
  -62.3267   31.3162  -22.7196 C   0  0  0  0  0  0  0  0  0  0  0  0
  -62.7519   33.4462  -23.7619 C   0  0  0  0  0  0  0  0  0  0  0  0
  -63.9881   33.3975  -23.1561 C   0  0  0  0  0  0  0  0  0  0  0  0
  -64.4010   32.3517  -22.3540 C   0  0  0  0  0  0  0  0  0  0  0  0
  -62.3142   34.5383  -24.6103 C   0  0  0  0  0  0  0  0  0  0  0  0
  -63.6694   35.6385  -28.1318 C   0  0  0  0  0  0  0  0  0  0  0  0
  -64.4663   34.5135  -27.5838 C   0  0  0  0  0  0  0  0  0  0  0  0
  -63.0019   36.5722  -27.4023 C   0  0  0  0  0  0  0  0  0  0  0  0
  -63.5657   31.2765  -22.1179 C   0  0  0  0  0  0  0  0  0  0  0  0
  -63.0618   36.4983  -25.9182 C   0  0  0  0  0  0  0  0  0  0  0  0
  -64.2676   34.3019  -26.1199 C   0  0  0  0  0  0  0  0  0  0  0  0
  -65.0672   30.2280  -20.4137 O   0  0  0  0  0  0  0  0  0  0  0  0
  -63.3452   29.0833  -21.3177 O   0  0  0  0  0  0  0  0  0  0  0  0
  -61.9125   32.3611  -23.5219 C   0  0  0  0  0  0  0  0  0  0  0  0
  -61.1478   35.0168  -24.5570 O   0  0  0  0  0  0  0  0  0  0  0  0
  -63.2088   35.1131  -25.5488 N   0  0  0  0  0  0  0  0  0  0  0  0
  -62.2779   37.5852  -28.0321 C   0  0  0  0  0  0  0  0  0  0  0  0
  -61.6753   38.4279  -27.3200 O   0  0  0  0  0  0  0  0  0  0  0  0
  -62.2469   37.6279  -29.3333 O   0  0  0  0  0  0  0  0  0  0  0  0
  -62.8788   36.7444  -30.0674 C   0  0  0  0  0  0  0  0  0  0  0  0
  -64.2567   34.8173  -30.3330 C   0  0  0  0  0  0  0  0  0  0  0  0
 14  1  1  0
  1 17  1  0
  1 18  2  0
 11  2  1  0
  2 25  1  0
  2 26  2  0
  3  4  2  0
 26  3  1  0
  5  4  1  0
 25  5  2  0
  6 14  2  0
 19  6  1  0
  7  8  1  0
 10  7  1  0
  7 19  2  0
  8  9  2  0
  9 14  1  0
 10 20  2  0
 21 10  1  0
 11 12  1  0
 13 11  2  0
 12 16  1  0
 15 13  1  0
 13 22  1  0
 15 21  1  0
 16 21  1  0
 22 23  2  0
 22 24  1  0
 24 25  1  0
M  END
$$$$
