
     RDKit          3D

 26 29  0  0  0  0  0  0  0  0999 V2000
  -60.9282   25.9254  -27.9727 C   0  0  0  0  0  0  0  0  0  0  0  0
  -63.8334   35.1941  -27.0741 C   0  0  0  0  0  0  0  0  0  0  0  0
  -63.3366   36.7709  -28.8323 C   0  0  0  0  0  0  0  0  0  0  0  0
  -63.4242   37.7803  -27.8992 C   0  0  0  0  0  0  0  0  0  0  0  0
  -63.7101   37.5125  -26.5789 C   0  0  0  0  0  0  0  0  0  0  0  0
  -61.8989   26.9889  -25.9469 C   0  0  0  0  0  0  0  0  0  0  0  0
  -62.4013   29.3412  -25.8104 C   0  0  0  0  0  0  0  0  0  0  0  0
  -61.9303   29.4277  -27.1020 C   0  0  0  0  0  0  0  0  0  0  0  0
  -61.4544   28.3427  -27.8119 C   0  0  0  0  0  0  0  0  0  0  0  0
  -62.8968   30.4774  -25.0570 C   0  0  0  0  0  0  0  0  0  0  0  0
  -64.0428   33.8858  -26.6434 C   0  0  0  0  0  0  0  0  0  0  0  0
  -63.9333   32.8285  -27.6784 C   0  0  0  0  0  0  0  0  0  0  0  0
  -64.3215   33.6870  -25.3272 C   0  0  0  0  0  0  0  0  0  0  0  0
  -61.4296   27.0856  -27.2388 C   0  0  0  0  0  0  0  0  0  0  0  0
  -64.5544   32.2992  -24.8463 C   0  0  0  0  0  0  0  0  0  0  0  0
  -63.8845   31.4476  -27.1146 C   0  0  0  0  0  0  0  0  0  0  0  0
  -60.3761   26.0144  -29.2390 O   0  0  0  0  0  0  0  0  0  0  0  0
  -60.9940   24.7907  -27.4464 O   0  0  0  0  0  0  0  0  0  0  0  0
  -62.3750   28.0728  -25.2359 C   0  0  0  0  0  0  0  0  0  0  0  0
  -62.5789   30.6878  -23.8541 O   0  0  0  0  0  0  0  0  0  0  0  0
  -63.7747   31.4084  -25.6683 N   0  0  0  0  0  0  0  0  0  0  0  0
  -64.3935   34.7641  -24.4431 C   0  0  0  0  0  0  0  0  0  0  0  0
  -64.6535   34.5359  -23.2345 O   0  0  0  0  0  0  0  0  0  0  0  0
  -64.1896   35.9690  -24.8932 O   0  0  0  0  0  0  0  0  0  0  0  0
  -63.9191   36.1970  -26.1555 C   0  0  0  0  0  0  0  0  0  0  0  0
  -63.5453   35.4792  -28.3979 C   0  0  0  0  0  0  0  0  0  0  0  0
 14  1  1  0
  1 17  1  0
  1 18  2  0
 11  2  1  0
  2 25  1  0
  2 26  2  0
  3  4  2  0
 26  3  1  0
  5  4  1  0
 25  5  2  0
  6 14  2  0
 19  6  1  0
  7  8  1  0
 10  7  1  0
  7 19  2  0
  8  9  2  0
  9 14  1  0
 10 20  2  0
 21 10  1  0
 11 12  1  0
 13 11  2  0
 12 16  1  0
 15 13  1  0
 13 22  1  0
 15 21  1  0
 16 21  1  0
 22 23  2  0
 22 24  1  0
 24 25  1  0
M  END
$$$$
