
     RDKit          3D

 26 29  0  0  0  0  0  0  0  0999 V2000
  -66.5872   34.0119  -19.0389 C   0  0  0  0  0  0  0  0  0  0  0  0
  -62.9838   29.9580  -26.8970 C   0  0  0  0  0  0  0  0  0  0  0  0
  -63.0573   27.5479  -26.9998 C   0  0  0  0  0  0  0  0  0  0  0  0
  -61.9637   27.5887  -27.8362 C   0  0  0  0  0  0  0  0  0  0  0  0
  -61.3853   28.7840  -28.2014 C   0  0  0  0  0  0  0  0  0  0  0  0
  -65.4685   32.9360  -20.9800 C   0  0  0  0  0  0  0  0  0  0  0  0
  -64.3438   34.1846  -22.7063 C   0  0  0  0  0  0  0  0  0  0  0  0
  -64.7039   35.3131  -22.0033 C   0  0  0  0  0  0  0  0  0  0  0  0
  -65.4229   35.2774  -20.8246 C   0  0  0  0  0  0  0  0  0  0  0  0
  -63.5941   34.2152  -23.9477 C   0  0  0  0  0  0  0  0  0  0  0  0
  -63.4924   31.1668  -26.4265 C   0  0  0  0  0  0  0  0  0  0  0  0
  -64.6662   31.0782  -25.5237 C   0  0  0  0  0  0  0  0  0  0  0  0
  -62.8768   32.3127  -26.8236 C   0  0  0  0  0  0  0  0  0  0  0  0
  -65.8242   34.0707  -20.2839 C   0  0  0  0  0  0  0  0  0  0  0  0
  -63.4062   33.6149  -26.3384 C   0  0  0  0  0  0  0  0  0  0  0  0
  -64.9847   32.3632  -24.8349 C   0  0  0  0  0  0  0  0  0  0  0  0
  -66.9924   35.1410  -18.3480 O   0  0  0  0  0  0  0  0  0  0  0  0
  -66.8965   32.8963  -18.5605 O   0  0  0  0  0  0  0  0  0  0  0  0
  -64.7496   32.9701  -22.1586 C   0  0  0  0  0  0  0  0  0  0  0  0
  -62.5802   34.9480  -24.1131 O   0  0  0  0  0  0  0  0  0  0  0  0
  -63.9899   33.3996  -25.0384 N   0  0  0  0  0  0  0  0  0  0  0  0
  -61.7720   32.2704  -27.6747 C   0  0  0  0  0  0  0  0  0  0  0  0
  -61.2328   33.3532  -28.0171 O   0  0  0  0  0  0  0  0  0  0  0  0
  -61.3330   31.1159  -28.0876 O   0  0  0  0  0  0  0  0  0  0  0  0
  -61.9022   29.9920  -27.7251 C   0  0  0  0  0  0  0  0  0  0  0  0
  -63.5544   28.7485  -26.5389 C   0  0  0  0  0  0  0  0  0  0  0  0
 14  1  1  0
  1 17  1  0
  1 18  2  0
 11  2  1  0
  2 25  1  0
  2 26  2  0
  3  4  2  0
 26  3  1  0
  5  4  1  0
 25  5  2  0
  6 14  2  0
 19  6  1  0
  7  8  1  0
 10  7  1  0
  7 19  2  0
  8  9  2  0
  9 14  1  0
 10 20  2  0
 21 10  1  0
 11 12  1  0
 13 11  2  0
 12 16  1  0
 15 13  1  0
 13 22  1  0
 15 21  1  0
 16 21  1  0
 22 23  2  0
 22 24  1  0
 24 25  1  0
M  END
$$$$
