
     RDKit          3D

 26 29  0  0  0  0  0  0  0  0999 V2000
  -61.5810   36.5536  -21.0621 C   0  0  0  0  0  0  0  0  0  0  0  0
  -62.4381   31.9292  -27.6572 C   0  0  0  0  0  0  0  0  0  0  0  0
  -60.7534   31.1327  -29.1908 C   0  0  0  0  0  0  0  0  0  0  0  0
  -60.7303   32.3882  -29.7569 C   0  0  0  0  0  0  0  0  0  0  0  0
  -61.5403   33.3995  -29.2903 C   0  0  0  0  0  0  0  0  0  0  0  0
  -61.7496   34.4888  -22.4351 C   0  0  0  0  0  0  0  0  0  0  0  0
  -63.6453   33.0044  -22.3485 C   0  0  0  0  0  0  0  0  0  0  0  0
  -64.1700   33.8702  -21.4143 C   0  0  0  0  0  0  0  0  0  0  0  0
  -63.5227   35.0140  -20.9898 C   0  0  0  0  0  0  0  0  0  0  0  0
  -64.3167   31.7985  -22.7943 C   0  0  0  0  0  0  0  0  0  0  0  0
  -63.3088   31.7084  -26.5921 C   0  0  0  0  0  0  0  0  0  0  0  0
  -63.2981   30.3450  -26.0074 C   0  0  0  0  0  0  0  0  0  0  0  0
  -64.0825   32.7473  -26.1781 C   0  0  0  0  0  0  0  0  0  0  0  0
  -62.2828   35.3488  -21.4998 C   0  0  0  0  0  0  0  0  0  0  0  0
  -65.0234   32.5328  -25.0465 C   0  0  0  0  0  0  0  0  0  0  0  0
  -64.0282   30.2492  -24.7093 C   0  0  0  0  0  0  0  0  0  0  0  0
  -62.0988   37.4299  -20.1239 O   0  0  0  0  0  0  0  0  0  0  0  0
  -60.4582   36.8211  -21.5489 O   0  0  0  0  0  0  0  0  0  0  0  0
  -62.3956   33.3448  -22.8605 C   0  0  0  0  0  0  0  0  0  0  0  0
  -64.7991   30.9516  -21.9928 O   0  0  0  0  0  0  0  0  0  0  0  0
  -64.4542   31.5314  -24.1804 N   0  0  0  0  0  0  0  0  0  0  0  0
  -64.0009   33.9912  -26.8049 C   0  0  0  0  0  0  0  0  0  0  0  0
  -64.7339   34.9246  -26.3904 O   0  0  0  0  0  0  0  0  0  0  0  0
  -63.1713   34.1488  -27.7964 O   0  0  0  0  0  0  0  0  0  0  0  0
  -62.4110   33.1691  -28.2216 C   0  0  0  0  0  0  0  0  0  0  0  0
  -61.6178   30.9226  -28.1375 C   0  0  0  0  0  0  0  0  0  0  0  0
 14  1  1  0
  1 17  1  0
  1 18  2  0
 11  2  1  0
  2 25  1  0
  2 26  2  0
  3  4  2  0
 26  3  1  0
  5  4  1  0
 25  5  2  0
  6 14  2  0
 19  6  1  0
  7  8  1  0
 10  7  1  0
  7 19  2  0
  8  9  2  0
  9 14  1  0
 10 20  2  0
 21 10  1  0
 11 12  1  0
 13 11  2  0
 12 16  1  0
 15 13  1  0
 13 22  1  0
 15 21  1  0
 16 21  1  0
 22 23  2  0
 22 24  1  0
 24 25  1  0
M  END
$$$$
