
     RDKit          3D

 26 29  0  0  0  0  0  0  0  0999 V2000
  -63.6917   36.9719  -31.6787 C   0  0  0  0  0  0  0  0  0  0  0  0
  -62.4485   28.6070  -27.2194 C   0  0  0  0  0  0  0  0  0  0  0  0
  -62.4582   26.6350  -28.6106 C   0  0  0  0  0  0  0  0  0  0  0  0
  -62.9227   25.9207  -27.5284 C   0  0  0  0  0  0  0  0  0  0  0  0
  -63.1484   26.5276  -26.3130 C   0  0  0  0  0  0  0  0  0  0  0  0
  -63.7937   36.6603  -29.2150 C   0  0  0  0  0  0  0  0  0  0  0  0
  -63.3927   34.5414  -28.1408 C   0  0  0  0  0  0  0  0  0  0  0  0
  -63.1897   34.0371  -29.4065 C   0  0  0  0  0  0  0  0  0  0  0  0
  -63.2806   34.8016  -30.5532 C   0  0  0  0  0  0  0  0  0  0  0  0
  -63.3047   33.7430  -26.9330 C   0  0  0  0  0  0  0  0  0  0  0  0
  -62.2117   29.9695  -27.0505 C   0  0  0  0  0  0  0  0  0  0  0  0
  -61.7182   30.7027  -28.2420 C   0  0  0  0  0  0  0  0  0  0  0  0
  -62.4539   30.5095  -25.8260 C   0  0  0  0  0  0  0  0  0  0  0  0
  -63.5889   36.1465  -30.4770 C   0  0  0  0  0  0  0  0  0  0  0  0
  -62.2027   31.9609  -25.6212 C   0  0  0  0  0  0  0  0  0  0  0  0
  -61.7550   32.1863  -28.0845 C   0  0  0  0  0  0  0  0  0  0  0  0
  -64.0187   38.3166  -31.6449 O   0  0  0  0  0  0  0  0  0  0  0  0
  -63.4780   36.4543  -32.7992 O   0  0  0  0  0  0  0  0  0  0  0  0
  -63.7031   35.8971  -28.0677 C   0  0  0  0  0  0  0  0  0  0  0  0
  -63.9875   33.9912  -25.9013 O   0  0  0  0  0  0  0  0  0  0  0  0
  -62.4261   32.6311  -26.8774 N   0  0  0  0  0  0  0  0  0  0  0  0
  -62.9244   29.7176  -24.7779 C   0  0  0  0  0  0  0  0  0  0  0  0
  -63.1353   30.2570  -23.6622 O   0  0  0  0  0  0  0  0  0  0  0  0
  -63.1309   28.4485  -24.9849 O   0  0  0  0  0  0  0  0  0  0  0  0
  -62.9078   27.8951  -26.1522 C   0  0  0  0  0  0  0  0  0  0  0  0
  -62.2263   27.9826  -28.4350 C   0  0  0  0  0  0  0  0  0  0  0  0
 14  1  1  0
  1 17  1  0
  1 18  2  0
 11  2  1  0
  2 25  1  0
  2 26  2  0
  3  4  2  0
 26  3  1  0
  5  4  1  0
 25  5  2  0
  6 14  2  0
 19  6  1  0
  7  8  1  0
 10  7  1  0
  7 19  2  0
  8  9  2  0
  9 14  1  0
 10 20  2  0
 21 10  1  0
 11 12  1  0
 13 11  2  0
 12 16  1  0
 15 13  1  0
 13 22  1  0
 15 21  1  0
 16 21  1  0
 22 23  2  0
 22 24  1  0
 24 25  1  0
M  END
$$$$
