
     RDKit          3D

 26 29  0  0  0  0  0  0  0  0999 V2000
  -68.3914   36.7996  -19.9332 C   0  0  0  0  0  0  0  0  0  0  0  0
  -63.6709   30.0975  -25.5391 C   0  0  0  0  0  0  0  0  0  0  0  0
  -64.7623   28.8753  -27.3109 C   0  0  0  0  0  0  0  0  0  0  0  0
  -63.7680   27.9268  -27.2168 C   0  0  0  0  0  0  0  0  0  0  0  0
  -62.7423   28.0520  -26.3064 C   0  0  0  0  0  0  0  0  0  0  0  0
  -67.3166   34.5641  -19.7752 C   0  0  0  0  0  0  0  0  0  0  0  0
  -65.2849   33.9977  -20.9395 C   0  0  0  0  0  0  0  0  0  0  0  0
  -65.3124   35.2835  -21.4330 C   0  0  0  0  0  0  0  0  0  0  0  0
  -66.3004   36.1967  -21.1208 C   0  0  0  0  0  0  0  0  0  0  0  0
  -64.2537   33.0319  -21.2678 C   0  0  0  0  0  0  0  0  0  0  0  0
  -63.6111   31.1946  -24.6823 C   0  0  0  0  0  0  0  0  0  0  0  0
  -64.7042   32.1891  -24.8119 C   0  0  0  0  0  0  0  0  0  0  0  0
  -62.5731   31.2605  -23.8060 C   0  0  0  0  0  0  0  0  0  0  0  0
  -67.3355   35.8484  -20.2741 C   0  0  0  0  0  0  0  0  0  0  0  0
  -62.4859   32.4255  -22.8859 C   0  0  0  0  0  0  0  0  0  0  0  0
  -64.7441   33.1776  -23.6945 C   0  0  0  0  0  0  0  0  0  0  0  0
  -69.4918   36.4619  -19.1642 O   0  0  0  0  0  0  0  0  0  0  0  0
  -68.3130   37.9787  -20.3485 O   0  0  0  0  0  0  0  0  0  0  0  0
  -66.3294   33.6501  -20.0864 C   0  0  0  0  0  0  0  0  0  0  0  0
  -63.7014   32.3032  -20.3982 O   0  0  0  0  0  0  0  0  0  0  0  0
  -63.8273   32.8751  -22.6113 N   0  0  0  0  0  0  0  0  0  0  0  0
  -61.6036   30.2576  -23.7724 C   0  0  0  0  0  0  0  0  0  0  0  0
  -60.6609   30.3576  -22.9467 O   0  0  0  0  0  0  0  0  0  0  0  0
  -61.7029   29.2514  -24.5932 O   0  0  0  0  0  0  0  0  0  0  0  0
  -62.6898   29.1561  -25.4509 C   0  0  0  0  0  0  0  0  0  0  0  0
  -64.6955   29.9577  -26.4596 C   0  0  0  0  0  0  0  0  0  0  0  0
 14  1  1  0
  1 17  1  0
  1 18  2  0
 11  2  1  0
  2 25  1  0
  2 26  2  0
  3  4  2  0
 26  3  1  0
  5  4  1  0
 25  5  2  0
  6 14  2  0
 19  6  1  0
  7  8  1  0
 10  7  1  0
  7 19  2  0
  8  9  2  0
  9 14  1  0
 10 20  2  0
 21 10  1  0
 11 12  1  0
 13 11  2  0
 12 16  1  0
 15 13  1  0
 13 22  1  0
 15 21  1  0
 16 21  1  0
 22 23  2  0
 22 24  1  0
 24 25  1  0
M  END
$$$$
