
     RDKit          3D

 26 29  0  0  0  0  0  0  0  0999 V2000
  -62.2513   38.9218  -28.6617 C   0  0  0  0  0  0  0  0  0  0  0  0
  -65.2035   32.7185  -22.6695 C   0  0  0  0  0  0  0  0  0  0  0  0
  -66.5510   33.7465  -20.9514 C   0  0  0  0  0  0  0  0  0  0  0  0
  -66.0315   32.8390  -20.0549 C   0  0  0  0  0  0  0  0  0  0  0  0
  -65.1169   31.8873  -20.4476 C   0  0  0  0  0  0  0  0  0  0  0  0
  -63.3950   36.7555  -28.2415 C   0  0  0  0  0  0  0  0  0  0  0  0
  -62.2616   34.8202  -27.3615 C   0  0  0  0  0  0  0  0  0  0  0  0
  -61.1272   35.6015  -27.3426 C   0  0  0  0  0  0  0  0  0  0  0  0
  -61.1047   36.9194  -27.7551 C   0  0  0  0  0  0  0  0  0  0  0  0
  -62.2909   33.4340  -26.9355 C   0  0  0  0  0  0  0  0  0  0  0  0
  -64.7757   32.6476  -23.9935 C   0  0  0  0  0  0  0  0  0  0  0  0
  -65.3546   33.6467  -24.9249 C   0  0  0  0  0  0  0  0  0  0  0  0
  -63.8711   31.6853  -24.3183 C   0  0  0  0  0  0  0  0  0  0  0  0
  -62.2548   37.5290  -28.2189 C   0  0  0  0  0  0  0  0  0  0  0  0
  -63.4047   31.5874  -25.7270 C   0  0  0  0  0  0  0  0  0  0  0  0
  -64.6567   33.7052  -26.2428 C   0  0  0  0  0  0  0  0  0  0  0  0
  -61.1200   39.7191  -28.6355 O   0  0  0  0  0  0  0  0  0  0  0  0
  -63.3126   39.4335  -29.0867 O   0  0  0  0  0  0  0  0  0  0  0  0
  -63.4189   35.4377  -27.8294 C   0  0  0  0  0  0  0  0  0  0  0  0
  -61.3172   32.6491  -27.1036 O   0  0  0  0  0  0  0  0  0  0  0  0
  -63.4452   32.9089  -26.3004 N   0  0  0  0  0  0  0  0  0  0  0  0
  -63.3920   30.8015  -23.3508 C   0  0  0  0  0  0  0  0  0  0  0  0
  -62.5565   29.9270  -23.6937 O   0  0  0  0  0  0  0  0  0  0  0  0
  -63.8217   30.9077  -22.1260 O   0  0  0  0  0  0  0  0  0  0  0  0
  -64.6933   31.8231  -21.7781 C   0  0  0  0  0  0  0  0  0  0  0  0
  -66.1225   33.6694  -22.2596 C   0  0  0  0  0  0  0  0  0  0  0  0
 14  1  1  0
  1 17  1  0
  1 18  2  0
 11  2  1  0
  2 25  1  0
  2 26  2  0
  3  4  2  0
 26  3  1  0
  5  4  1  0
 25  5  2  0
  6 14  2  0
 19  6  1  0
  7  8  1  0
 10  7  1  0
  7 19  2  0
  8  9  2  0
  9 14  1  0
 10 20  2  0
 21 10  1  0
 11 12  1  0
 13 11  2  0
 12 16  1  0
 15 13  1  0
 13 22  1  0
 15 21  1  0
 16 21  1  0
 22 23  2  0
 22 24  1  0
 24 25  1  0
M  END
$$$$
