
     RDKit          3D

 26 29  0  0  0  0  0  0  0  0999 V2000
  -60.4837   31.3645  -33.2220 C   0  0  0  0  0  0  0  0  0  0  0  0
  -64.6385   33.2595  -24.0099 C   0  0  0  0  0  0  0  0  0  0  0  0
  -64.5354   35.1913  -22.5670 C   0  0  0  0  0  0  0  0  0  0  0  0
  -65.0519   34.4141  -21.5539 C   0  0  0  0  0  0  0  0  0  0  0  0
  -65.3588   33.0866  -21.7546 C   0  0  0  0  0  0  0  0  0  0  0  0
  -60.8451   32.1177  -30.8812 C   0  0  0  0  0  0  0  0  0  0  0  0
  -61.8892   30.7393  -29.2037 C   0  0  0  0  0  0  0  0  0  0  0  0
  -61.9996   29.7797  -30.1858 C   0  0  0  0  0  0  0  0  0  0  0  0
  -61.5538   29.9619  -31.4802 C   0  0  0  0  0  0  0  0  0  0  0  0
  -62.3605   30.5569  -27.8441 C   0  0  0  0  0  0  0  0  0  0  0  0
  -64.4329   32.6624  -25.2518 C   0  0  0  0  0  0  0  0  0  0  0  0
  -63.8694   33.5324  -26.3133 C   0  0  0  0  0  0  0  0  0  0  0  0
  -64.7559   31.3482  -25.3863 C   0  0  0  0  0  0  0  0  0  0  0  0
  -60.9601   31.1515  -31.8569 C   0  0  0  0  0  0  0  0  0  0  0  0
  -64.5502   30.6917  -26.7047 C   0  0  0  0  0  0  0  0  0  0  0  0
  -63.4108   32.7797  -27.5175 C   0  0  0  0  0  0  0  0  0  0  0  0
  -59.9479   32.5649  -33.6557 O   0  0  0  0  0  0  0  0  0  0  0  0
  -60.5570   30.4282  -34.0509 O   0  0  0  0  0  0  0  0  0  0  0  0
  -61.2903   31.9369  -29.5866 C   0  0  0  0  0  0  0  0  0  0  0  0
  -61.8488   29.7176  -27.0528 O   0  0  0  0  0  0  0  0  0  0  0  0
  -63.4375   31.3383  -27.3533 N   0  0  0  0  0  0  0  0  0  0  0  0
  -65.2760   30.6281  -24.3102 C   0  0  0  0  0  0  0  0  0  0  0  0
  -65.5610   29.4153  -24.4777 O   0  0  0  0  0  0  0  0  0  0  0  0
  -65.4498   31.2303  -23.1686 O   0  0  0  0  0  0  0  0  0  0  0  0
  -65.1496   32.4958  -23.0039 C   0  0  0  0  0  0  0  0  0  0  0  0
  -64.3351   34.5928  -23.7927 C   0  0  0  0  0  0  0  0  0  0  0  0
 14  1  1  0
  1 17  1  0
  1 18  2  0
 11  2  1  0
  2 25  1  0
  2 26  2  0
  3  4  2  0
 26  3  1  0
  5  4  1  0
 25  5  2  0
  6 14  2  0
 19  6  1  0
  7  8  1  0
 10  7  1  0
  7 19  2  0
  8  9  2  0
  9 14  1  0
 10 20  2  0
 21 10  1  0
 11 12  1  0
 13 11  2  0
 12 16  1  0
 15 13  1  0
 13 22  1  0
 15 21  1  0
 16 21  1  0
 22 23  2  0
 22 24  1  0
 24 25  1  0
M  END
$$$$
