
     RDKit          3D

 26 29  0  0  0  0  0  0  0  0999 V2000
  -60.0631   31.3810  -33.4311 C   0  0  0  0  0  0  0  0  0  0  0  0
  -64.3927   32.8952  -24.4235 C   0  0  0  0  0  0  0  0  0  0  0  0
  -64.5046   34.9676  -23.1917 C   0  0  0  0  0  0  0  0  0  0  0  0
  -64.8267   34.2380  -22.0687 C   0  0  0  0  0  0  0  0  0  0  0  0
  -64.9323   32.8656  -22.1120 C   0  0  0  0  0  0  0  0  0  0  0  0
  -60.8747   32.0434  -31.1772 C   0  0  0  0  0  0  0  0  0  0  0  0
  -61.4785   30.4474  -29.4765 C   0  0  0  0  0  0  0  0  0  0  0  0
  -61.1440   29.4752  -30.3934 C   0  0  0  0  0  0  0  0  0  0  0  0
  -60.6876   29.7556  -31.6664 C   0  0  0  0  0  0  0  0  0  0  0  0
  -61.9641   30.1601  -28.1403 C   0  0  0  0  0  0  0  0  0  0  0  0
  -64.1745   32.2028  -25.6126 C   0  0  0  0  0  0  0  0  0  0  0  0
  -63.8238   33.0252  -26.7964 C   0  0  0  0  0  0  0  0  0  0  0  0
  -64.2938   30.8482  -25.5901 C   0  0  0  0  0  0  0  0  0  0  0  0
  -60.5427   31.0637  -32.0875 C   0  0  0  0  0  0  0  0  0  0  0  0
  -64.0710   30.0888  -26.8492 C   0  0  0  0  0  0  0  0  0  0  0  0
  -63.3293   32.2220  -27.9529 C   0  0  0  0  0  0  0  0  0  0  0  0
  -59.6251   30.4175  -34.3232 O   0  0  0  0  0  0  0  0  0  0  0  0
  -60.0399   32.5752  -33.8085 O   0  0  0  0  0  0  0  0  0  0  0  0
  -61.3312   31.7646  -29.9041 C   0  0  0  0  0  0  0  0  0  0  0  0
  -61.3990   29.3323  -27.3737 O   0  0  0  0  0  0  0  0  0  0  0  0
  -63.1177   30.8200  -27.6451 N   0  0  0  0  0  0  0  0  0  0  0  0
  -64.6245   30.1811  -24.4100 C   0  0  0  0  0  0  0  0  0  0  0  0
  -64.7244   28.9282  -24.4333 O   0  0  0  0  0  0  0  0  0  0  0  0
  -64.8185   30.8723  -23.3235 O   0  0  0  0  0  0  0  0  0  0  0  0
  -64.7120   32.1789  -23.3092 C   0  0  0  0  0  0  0  0  0  0  0  0
  -64.2904   34.2747  -24.3642 C   0  0  0  0  0  0  0  0  0  0  0  0
 14  1  1  0
  1 17  1  0
  1 18  2  0
 11  2  1  0
  2 25  1  0
  2 26  2  0
  3  4  2  0
 26  3  1  0
  5  4  1  0
 25  5  2  0
  6 14  2  0
 19  6  1  0
  7  8  1  0
 10  7  1  0
  7 19  2  0
  8  9  2  0
  9 14  1  0
 10 20  2  0
 21 10  1  0
 11 12  1  0
 13 11  2  0
 12 16  1  0
 15 13  1  0
 13 22  1  0
 15 21  1  0
 16 21  1  0
 22 23  2  0
 22 24  1  0
 24 25  1  0
M  END
$$$$
