
     RDKit          3D

 26 29  0  0  0  0  0  0  0  0999 V2000
  -66.2511   36.2613  -20.8081 C   0  0  0  0  0  0  0  0  0  0  0  0
  -62.6296   31.3237  -28.6258 C   0  0  0  0  0  0  0  0  0  0  0  0
  -62.6867   32.1974  -30.8747 C   0  0  0  0  0  0  0  0  0  0  0  0
  -62.5294   30.9098  -31.3378 C   0  0  0  0  0  0  0  0  0  0  0  0
  -62.4231   29.8448  -30.4711 C   0  0  0  0  0  0  0  0  0  0  0  0
  -64.5158   34.6362  -21.5326 C   0  0  0  0  0  0  0  0  0  0  0  0
  -64.9713   32.8115  -23.0383 C   0  0  0  0  0  0  0  0  0  0  0  0
  -66.2689   33.2731  -23.0659 C   0  0  0  0  0  0  0  0  0  0  0  0
  -66.6979   34.3784  -22.3576 C   0  0  0  0  0  0  0  0  0  0  0  0
  -64.5155   31.6480  -23.7748 C   0  0  0  0  0  0  0  0  0  0  0  0
  -62.6793   31.5212  -27.2475 C   0  0  0  0  0  0  0  0  0  0  0  0
  -62.8559   32.9216  -26.7910 C   0  0  0  0  0  0  0  0  0  0  0  0
  -62.5686   30.4290  -26.4447 C   0  0  0  0  0  0  0  0  0  0  0  0
  -65.8163   35.0902  -21.5666 C   0  0  0  0  0  0  0  0  0  0  0  0
  -62.6132   30.6169  -24.9701 C   0  0  0  0  0  0  0  0  0  0  0  0
  -63.1841   33.0368  -25.3397 C   0  0  0  0  0  0  0  0  0  0  0  0
  -65.4068   36.9795  -19.9788 O   0  0  0  0  0  0  0  0  0  0  0  0
  -67.4396   36.6461  -20.9005 O   0  0  0  0  0  0  0  0  0  0  0  0
  -64.0855   33.5312  -22.2403 C   0  0  0  0  0  0  0  0  0  0  0  0
  -65.0383   30.5077  -23.6381 O   0  0  0  0  0  0  0  0  0  0  0  0
  -63.4417   31.7633  -24.6940 N   0  0  0  0  0  0  0  0  0  0  0  0
  -62.4107   29.1551  -26.9917 C   0  0  0  0  0  0  0  0  0  0  0  0
  -62.3124   28.1727  -26.2136 O   0  0  0  0  0  0  0  0  0  0  0  0
  -62.3704   29.0212  -28.2865 O   0  0  0  0  0  0  0  0  0  0  0  0
  -62.4737   30.0521  -29.0898 C   0  0  0  0  0  0  0  0  0  0  0  0
  -62.7348   32.3842  -29.5096 C   0  0  0  0  0  0  0  0  0  0  0  0
 14  1  1  0
  1 17  1  0
  1 18  2  0
 11  2  1  0
  2 25  1  0
  2 26  2  0
  3  4  2  0
 26  3  1  0
  5  4  1  0
 25  5  2  0
  6 14  2  0
 19  6  1  0
  7  8  1  0
 10  7  1  0
  7 19  2  0
  8  9  2  0
  9 14  1  0
 10 20  2  0
 21 10  1  0
 11 12  1  0
 13 11  2  0
 12 16  1  0
 15 13  1  0
 13 22  1  0
 15 21  1  0
 16 21  1  0
 22 23  2  0
 22 24  1  0
 24 25  1  0
M  END
$$$$
