
     RDKit          3D

 26 29  0  0  0  0  0  0  0  0999 V2000
  -65.8641   33.0201  -19.7195 C   0  0  0  0  0  0  0  0  0  0  0  0
  -61.5290   30.7750  -28.6969 C   0  0  0  0  0  0  0  0  0  0  0  0
  -60.7297   30.6144  -30.9685 C   0  0  0  0  0  0  0  0  0  0  0  0
  -60.7831   29.2432  -30.8495 C   0  0  0  0  0  0  0  0  0  0  0  0
  -61.1990   28.6410  -29.6830 C   0  0  0  0  0  0  0  0  0  0  0  0
  -65.0327   32.0365  -21.8452 C   0  0  0  0  0  0  0  0  0  0  0  0
  -64.8817   33.2849  -23.9002 C   0  0  0  0  0  0  0  0  0  0  0  0
  -65.3786   34.3529  -23.1859 C   0  0  0  0  0  0  0  0  0  0  0  0
  -65.6988   34.2870  -21.8440 C   0  0  0  0  0  0  0  0  0  0  0  0
  -64.5490   33.3454  -25.3107 C   0  0  0  0  0  0  0  0  0  0  0  0
  -61.9102   31.5418  -27.5979 C   0  0  0  0  0  0  0  0  0  0  0  0
  -61.8441   33.0138  -27.7698 C   0  0  0  0  0  0  0  0  0  0  0  0
  -62.3111   30.8875  -26.4750 C   0  0  0  0  0  0  0  0  0  0  0  0
  -65.5294   33.1106  -21.1392 C   0  0  0  0  0  0  0  0  0  0  0  0
  -62.7170   31.6858  -25.2878 C   0  0  0  0  0  0  0  0  0  0  0  0
  -62.5245   33.7709  -26.6785 C   0  0  0  0  0  0  0  0  0  0  0  0
  -65.6647   31.8744  -18.9686 O   0  0  0  0  0  0  0  0  0  0  0  0
  -66.3558   34.0158  -19.1400 O   0  0  0  0  0  0  0  0  0  0  0  0
  -64.7120   32.1008  -23.1869 C   0  0  0  0  0  0  0  0  0  0  0  0
  -65.3600   33.7589  -26.1846 O   0  0  0  0  0  0  0  0  0  0  0  0
  -63.2686   32.9313  -25.7583 N   0  0  0  0  0  0  0  0  0  0  0  0
  -62.3370   29.4931  -26.4332 C   0  0  0  0  0  0  0  0  0  0  0  0
  -62.7145   28.9285  -25.3754 O   0  0  0  0  0  0  0  0  0  0  0  0
  -61.9716   28.8199  -27.4864 O   0  0  0  0  0  0  0  0  0  0  0  0
  -61.5794   29.4179  -28.5851 C   0  0  0  0  0  0  0  0  0  0  0  0
  -61.1085   31.3658  -29.8763 C   0  0  0  0  0  0  0  0  0  0  0  0
 14  1  1  0
  1 17  1  0
  1 18  2  0
 11  2  1  0
  2 25  1  0
  2 26  2  0
  3  4  2  0
 26  3  1  0
  5  4  1  0
 25  5  2  0
  6 14  2  0
 19  6  1  0
  7  8  1  0
 10  7  1  0
  7 19  2  0
  8  9  2  0
  9 14  1  0
 10 20  2  0
 21 10  1  0
 11 12  1  0
 13 11  2  0
 12 16  1  0
 15 13  1  0
 13 22  1  0
 15 21  1  0
 16 21  1  0
 22 23  2  0
 22 24  1  0
 24 25  1  0
M  END
$$$$
