
     RDKit          3D

 39 43  0  0  0  0  0  0  0  0999 V2000
  -27.4549    8.6878    0.4834 C   0  0  0  0  0  0  0  0  0  0  0  0
  -27.6558    9.3363    1.6668 C   0  0  0  0  0  0  0  0  0  0  0  0
  -29.9903    8.8192    1.5812 C   0  0  0  0  0  0  0  0  0  0  0  0
  -29.8287    8.1460    0.3692 C   0  0  0  0  0  0  0  0  0  0  0  0
  -26.1329    8.5936   -0.1340 C   0  0  0  0  0  0  0  0  0  0  0  0
  -24.9240    8.5550    0.5305 C   0  0  0  0  0  0  0  0  0  0  0  0
  -22.0144    6.9988    0.1242 C   0  0  2  0  0  0  0  0  0  0  0  0
  -22.4970    8.3978    0.0481 C   0  0  1  0  0  0  0  0  0  0  0  0
  -21.6630    9.3159   -0.7813 C   0  0  2  0  0  0  0  0  0  0  0  0
  -18.0777   11.1081   -0.7158 C   0  0  0  0  0  0  0  0  0  0  0  0
  -11.2729    9.8672   -2.2947 C   0  0  0  0  0  0  0  0  0  0  0  0
   -8.9068    9.4384   -1.9767 C   0  0  0  0  0  0  0  0  0  0  0  0
  -10.1977    7.9522   -3.2779 C   0  0  0  0  0  0  0  0  0  0  0  0
  -28.5467    8.1126   -0.1290 C   0  0  0  0  0  0  0  0  0  0  0  0
  -28.9314    9.4075    2.2278 C   0  0  0  0  0  0  0  0  0  0  0  0
  -20.5793    6.7406   -0.1319 C   0  0  1  0  0  0  0  0  0  0  0  0
  -20.2078    8.9649   -0.6315 C   0  0  1  0  0  0  0  0  0  0  0  0
  -20.3228    5.3271   -0.6527 C   0  0  0  0  0  0  0  0  0  0  0  0
  -16.6252   10.7210   -0.8138 C   0  0  1  0  0  0  0  0  0  0  0  0
  -16.0137   11.5085   -1.9492 C   0  0  0  0  0  0  0  0  0  0  0  0
  -12.4689   10.6827   -2.0580 C   0  0  0  0  0  0  0  0  0  0  0  0
  -13.7832   10.3791   -2.2476 C   0  0  0  0  0  0  0  0  0  0  0  0
  -10.0505   10.2086   -1.7614 C   0  0  0  0  0  0  0  0  0  0  0  0
   -8.9761    8.2939   -2.7444 C   0  0  0  0  0  0  0  0  0  0  0  0
  -11.3411    8.7247   -3.0609 C   0  0  0  0  0  0  0  0  0  0  0  0
  -30.8554    7.5610   -0.2799 F   0  0  0  0  0  0  0  0  0  0  0  0
   -7.7151    9.8133   -1.4278 F   0  0  0  0  0  0  0  0  0  0  0  0
  -25.7954    8.5200   -1.4334 N   0  0  0  0  0  0  0  0  0  0  0  0
  -24.4562    8.4416   -1.5400 N   0  0  0  0  0  0  0  0  0  0  0  0
  -23.9149    8.4622   -0.3457 N   0  0  0  0  0  0  0  0  0  0  0  0
  -14.5459   11.4282   -1.8961 N   0  0  0  0  0  0  0  0  0  0  0  0
  -13.7062   12.3678   -1.4941 N   0  0  0  0  0  0  0  0  0  0  0  0
  -12.4543   11.9421   -1.5827 N   0  0  0  0  0  0  0  0  0  0  0  0
  -19.9050    7.6703   -0.8958 O   0  0  0  0  0  0  0  0  0  0  0  0
  -22.7508    6.2606   -0.8340 O   0  0  0  0  0  0  0  0  0  0  0  0
  -19.3996    4.6289    0.0804 O   0  0  0  0  0  0  0  0  0  0  0  0
  -21.8269   10.6142   -0.2918 O   0  0  0  0  0  0  0  0  0  0  0  0
  -15.9368   10.9960    0.3397 O   0  0  0  0  0  0  0  0  0  0  0  0
  -19.2052   10.0673   -1.6232 S   0  0  0  0  0  0  0  0  0  0  0  0
  1  2  2  0
  5  1  1  0
  1 14  1  0
  2 15  1  0
  4  3  1  0
 15  3  2  0
 14  4  2  0
  4 26  1  0
  6  5  2  0
  5 28  1  0
 30  6  1  0
  8  7  1  0
 16  7  1  0
  7 35  1  6
  9  8  1  0
  8 30  1  6
 17  9  1  0
  9 37  1  1
 19 10  1  0
 10 39  1  0
 21 11  1  0
 11 23  1  0
 11 25  2  0
 23 12  2  0
 12 24  1  0
 12 27  1  0
 13 24  2  0
 25 13  1  0
 16 18  1  6
 34 16  1  0
 17 34  1  0
 17 39  1  6
 18 36  1  0
 20 19  1  0
 19 38  1  1
 31 20  1  0
 22 21  2  0
 21 33  1  0
 22 31  1  0
 28 29  2  0
 29 30  1  0
 31 32  1  0
 32 33  2  0
M  END
$$$$
