
     RDKit          3D

 39 43  0  0  0  0  0  0  0  0999 V2000
  -26.5020    8.8893    1.5726 C   0  0  0  0  0  0  0  0  0  0  0  0
  -27.6453    9.5165    1.1713 C   0  0  0  0  0  0  0  0  0  0  0  0
  -28.6048    9.2075    3.3412 C   0  0  0  0  0  0  0  0  0  0  0  0
  -27.4535    8.5603    3.7925 C   0  0  0  0  0  0  0  0  0  0  0  0
  -25.3659    8.6984    0.6724 C   0  0  0  0  0  0  0  0  0  0  0  0
  -24.0318    8.7524    1.0212 C   0  0  0  0  0  0  0  0  0  0  0  0
  -21.2667    7.1995    0.4331 C   0  0  2  0  0  0  0  0  0  0  0  0
  -21.7892    8.5138   -0.0093 C   0  0  1  0  0  0  0  0  0  0  0  0
  -21.2073    9.0365   -1.2799 C   0  0  2  0  0  0  0  0  0  0  0  0
  -17.5616   10.2626   -2.7113 C   0  0  0  0  0  0  0  0  0  0  0  0
  -10.6966    8.7890   -3.3201 C   0  0  0  0  0  0  0  0  0  0  0  0
   -9.3181    9.2491   -5.2621 C   0  0  0  0  0  0  0  0  0  0  0  0
   -8.4606    7.9207   -3.5104 C   0  0  0  0  0  0  0  0  0  0  0  0
  -26.4408    8.4307    2.8703 C   0  0  0  0  0  0  0  0  0  0  0  0
  -28.7110    9.6813    2.0568 C   0  0  0  0  0  0  0  0  0  0  0  0
  -19.9316    6.7806   -0.0504 C   0  0  1  0  0  0  0  0  0  0  0  0
  -19.7511    8.6692   -1.3678 C   0  0  1  0  0  0  0  0  0  0  0  0
  -19.7737    5.2612   -0.0901 C   0  0  0  0  0  0  0  0  0  0  0  0
  -16.2788    9.4730   -2.7251 C   0  0  1  0  0  0  0  0  0  0  0  0
  -15.2920   10.1806   -1.8257 C   0  0  0  0  0  0  0  0  0  0  0  0
  -11.9539    8.9363   -2.5793 C   0  0  0  0  0  0  0  0  0  0  0  0
  -13.0416    9.7097   -2.8520 C   0  0  0  0  0  0  0  0  0  0  0  0
  -10.5112    9.3792   -4.5500 C   0  0  0  0  0  0  0  0  0  0  0  0
   -8.2757    8.5111   -4.7397 C   0  0  0  0  0  0  0  0  0  0  0  0
   -9.6557    8.0525   -2.7994 C   0  0  0  0  0  0  0  0  0  0  0  0
  -27.3298    8.0897    5.0498 F   0  0  0  0  0  0  0  0  0  0  0  0
   -9.1767    9.8523   -6.4779 F   0  0  0  0  0  0  0  0  0  0  0  0
  -25.3498    8.4318   -0.6454 N   0  0  0  0  0  0  0  0  0  0  0  0
  -24.0742    8.3320   -1.0621 N   0  0  0  0  0  0  0  0  0  0  0  0
  -23.2616    8.5262   -0.0513 N   0  0  0  0  0  0  0  0  0  0  0  0
  -13.9740    9.5320   -1.9008 N   0  0  0  0  0  0  0  0  0  0  0  0
  -13.4625    8.6566   -1.0513 N   0  0  0  0  0  0  0  0  0  0  0  0
  -12.2507    8.2854   -1.4389 N   0  0  0  0  0  0  0  0  0  0  0  0
  -19.4888    7.3467   -1.2277 O   0  0  0  0  0  0  0  0  0  0  0  0
  -22.1957    6.2236   -0.0026 O   0  0  0  0  0  0  0  0  0  0  0  0
  -18.7410    4.7943    0.6797 O   0  0  0  0  0  0  0  0  0  0  0  0
  -21.2801   10.4315   -1.2503 O   0  0  0  0  0  0  0  0  0  0  0  0
  -16.4545    8.1912   -2.2710 O   0  0  0  0  0  0  0  0  0  0  0  0
  -19.0502    9.2982   -2.8900 S   0  0  0  0  0  0  0  0  0  0  0  0
  1  2  2  0
  5  1  1  0
  1 14  1  0
  2 15  1  0
  4  3  1  0
 15  3  2  0
 14  4  2  0
  4 26  1  0
  6  5  2  0
  5 28  1  0
 30  6  1  0
  8  7  1  0
 16  7  1  0
  7 35  1  6
  9  8  1  0
  8 30  1  6
 17  9  1  0
  9 37  1  1
 19 10  1  0
 10 39  1  0
 21 11  1  0
 11 23  1  0
 11 25  2  0
 23 12  2  0
 12 24  1  0
 12 27  1  0
 13 24  2  0
 25 13  1  0
 16 18  1  6
 34 16  1  0
 17 34  1  0
 17 39  1  6
 18 36  1  0
 20 19  1  0
 19 38  1  1
 31 20  1  0
 22 21  2  0
 21 33  1  0
 22 31  1  0
 28 29  2  0
 29 30  1  0
 31 32  1  0
 32 33  2  0
M  END
$$$$
