
     RDKit          3D

 39 43  0  0  0  0  0  0  0  0999 V2000
  -13.4048    8.4917    0.3896 C   0  0  0  0  0  0  0  0  0  0  0  0
  -12.0694    8.2685    0.2209 C   0  0  0  0  0  0  0  0  0  0  0  0
  -11.7999    7.9544    2.5775 C   0  0  0  0  0  0  0  0  0  0  0  0
  -13.1607    8.1766    2.7944 C   0  0  0  0  0  0  0  0  0  0  0  0
  -14.2909    8.7797   -0.7371 C   0  0  0  0  0  0  0  0  0  0  0  0
  -15.6212    8.4271   -0.8385 C   0  0  0  0  0  0  0  0  0  0  0  0
  -17.7076    7.3169   -3.0582 C   0  0  2  0  0  0  0  0  0  0  0  0
  -17.5263    8.6378   -2.4115 C   0  0  1  0  0  0  0  0  0  0  0  0
  -18.4689    8.9355   -1.2938 C   0  0  2  0  0  0  0  0  0  0  0  0
  -22.6845    8.4646   -0.6240 C   0  0  0  0  0  0  0  0  0  0  0  0
  -28.0528   11.0121    3.4637 C   0  0  0  0  0  0  0  0  0  0  0  0
  -29.6117   11.3232    5.2958 C   0  0  0  0  0  0  0  0  0  0  0  0
  -30.3967   11.3891    3.0714 C   0  0  0  0  0  0  0  0  0  0  0  0
  -13.9096    8.4389    1.6705 C   0  0  0  0  0  0  0  0  0  0  0  0
  -11.2524    7.9968    1.3189 C   0  0  0  0  0  0  0  0  0  0  0  0
  -19.0321    6.6640   -2.9527 C   0  0  1  0  0  0  0  0  0  0  0  0
  -19.8245    8.3581   -1.5971 C   0  0  1  0  0  0  0  0  0  0  0  0
  -18.9444    5.1420   -3.0565 C   0  0  0  0  0  0  0  0  0  0  0  0
  -23.6224    8.6596    0.5386 C   0  0  1  0  0  0  0  0  0  0  0  0
  -24.0669   10.1039    0.5353 C   0  0  0  0  0  0  0  0  0  0  0  0
  -26.6933   10.7766    2.9661 C   0  0  0  0  0  0  0  0  0  0  0  0
  -26.2582   10.5344    1.6982 C   0  0  0  0  0  0  0  0  0  0  0  0
  -28.3230   11.0956    4.8110 C   0  0  0  0  0  0  0  0  0  0  0  0
  -30.6661   11.4727    4.4184 C   0  0  0  0  0  0  0  0  0  0  0  0
  -29.1059   11.1614    2.5886 C   0  0  0  0  0  0  0  0  0  0  0  0
  -13.7169    8.1377    4.0219 F   0  0  0  0  0  0  0  0  0  0  0  0
  -29.8344   11.4000    6.6398 F   0  0  0  0  0  0  0  0  0  0  0  0
  -14.0356    9.4303   -1.8858 N   0  0  0  0  0  0  0  0  0  0  0  0
  -15.1536    9.4647   -2.6338 N   0  0  0  0  0  0  0  0  0  0  0  0
  -16.1278    8.8545   -2.0027 N   0  0  0  0  0  0  0  0  0  0  0  0
  -24.9234   10.3789    1.6990 N   0  0  0  0  0  0  0  0  0  0  0  0
  -24.5427   10.5246    2.9573 N   0  0  0  0  0  0  0  0  0  0  0  0
  -25.5885   10.7641    3.7353 N   0  0  0  0  0  0  0  0  0  0  0  0
  -19.8267    7.0340   -1.8875 O   0  0  0  0  0  0  0  0  0  0  0  0
  -16.7610    6.4421   -2.4716 O   0  0  0  0  0  0  0  0  0  0  0  0
  -20.0331    4.5672   -3.6578 O   0  0  0  0  0  0  0  0  0  0  0  0
  -18.6202   10.3219   -1.2098 O   0  0  0  0  0  0  0  0  0  0  0  0
  -24.7284    7.8537    0.4529 O   0  0  0  0  0  0  0  0  0  0  0  0
  -20.9579    8.7169   -0.2590 S   0  0  0  0  0  0  0  0  0  0  0  0
  1  2  2  0
  5  1  1  0
  1 14  1  0
  2 15  1  0
  4  3  1  0
 15  3  2  0
 14  4  2  0
  4 26  1  0
  6  5  2  0
  5 28  1  0
 30  6  1  0
  8  7  1  0
 16  7  1  0
  7 35  1  1
  9  8  1  0
  8 30  1  1
 17  9  1  0
  9 37  1  6
 19 10  1  0
 10 39  1  0
 21 11  1  0
 11 23  1  0
 11 25  2  0
 23 12  2  0
 12 24  1  0
 12 27  1  0
 13 24  2  0
 25 13  1  0
 16 18  1  1
 34 16  1  0
 17 34  1  0
 17 39  1  1
 18 36  1  0
 20 19  1  0
 19 38  1  6
 31 20  1  0
 22 21  2  0
 21 33  1  0
 22 31  1  0
 28 29  2  0
 29 30  1  0
 31 32  1  0
 32 33  2  0
M  END
$$$$
