
     RDKit          3D

 39 43  0  0  0  0  0  0  0  0999 V2000
  -26.4018    8.0964    1.2121 C   0  0  0  0  0  0  0  0  0  0  0  0
  -26.5943    6.8709    0.6445 C   0  0  0  0  0  0  0  0  0  0  0  0
  -28.7687    6.7282    1.6326 C   0  0  0  0  0  0  0  0  0  0  0  0
  -28.6128    7.9792    2.2317 C   0  0  0  0  0  0  0  0  0  0  0  0
  -25.1673    8.8553    1.0178 C   0  0  0  0  0  0  0  0  0  0  0  0
  -23.9874    8.3710    0.4906 C   0  0  0  0  0  0  0  0  0  0  0  0
  -21.1716    7.8010    0.2865 C   0  0  2  0  0  0  0  0  0  0  0  0
  -21.6963    9.1429   -0.0599 C   0  0  1  0  0  0  0  0  0  0  0  0
  -21.6010    9.5121   -1.5024 C   0  0  2  0  0  0  0  0  0  0  0  0
  -18.8367   10.4467   -4.2563 C   0  0  0  0  0  0  0  0  0  0  0  0
  -12.1327    8.4995   -2.7040 C   0  0  0  0  0  0  0  0  0  0  0  0
   -9.9797    7.6128   -2.0246 C   0  0  0  0  0  0  0  0  0  0  0  0
  -10.1047    9.7625   -2.9897 C   0  0  0  0  0  0  0  0  0  0  0  0
  -27.4163    8.6131    1.9879 C   0  0  0  0  0  0  0  0  0  0  0  0
  -27.7851    6.1736    0.8512 C   0  0  0  0  0  0  0  0  0  0  0  0
  -20.1717    7.1881   -0.6169 C   0  0  1  0  0  0  0  0  0  0  0  0
  -20.3328    8.9581   -2.0922 C   0  0  1  0  0  0  0  0  0  0  0  0
  -20.1867    5.6612   -0.5568 C   0  0  0  0  0  0  0  0  0  0  0  0
  -17.5494   10.1451   -3.5344 C   0  0  1  0  0  0  0  0  0  0  0  0
  -16.9079    8.9568   -4.2126 C   0  0  0  0  0  0  0  0  0  0  0  0
  -13.5865    8.3637   -2.8430 C   0  0  0  0  0  0  0  0  0  0  0  0
  -14.4395    8.9677   -3.7167 C   0  0  0  0  0  0  0  0  0  0  0  0
  -11.3639    7.4963   -2.1583 C   0  0  0  0  0  0  0  0  0  0  0  0
   -9.3366    8.7592   -2.4444 C   0  0  0  0  0  0  0  0  0  0  0  0
  -11.4900    9.6435   -3.1227 C   0  0  0  0  0  0  0  0  0  0  0  0
  -29.5671    8.5409    3.0007 F   0  0  0  0  0  0  0  0  0  0  0  0
   -9.2559    6.5928   -1.4790 F   0  0  0  0  0  0  0  0  0  0  0  0
  -24.9007   10.1452    1.2879 N   0  0  0  0  0  0  0  0  0  0  0  0
  -23.6294   10.4175    0.9407 N   0  0  0  0  0  0  0  0  0  0  0  0
  -23.0632    9.3400    0.4526 N   0  0  0  0  0  0  0  0  0  0  0  0
  -15.6951    8.5469   -3.4884 N   0  0  0  0  0  0  0  0  0  0  0  0
  -15.6131    7.6915   -2.4828 N   0  0  0  0  0  0  0  0  0  0  0  0
  -14.3569    7.5661   -2.0797 N   0  0  0  0  0  0  0  0  0  0  0  0
  -20.1639    7.6234   -1.9257 O   0  0  0  0  0  0  0  0  0  0  0  0
  -22.2851    6.9274    0.3339 O   0  0  0  0  0  0  0  0  0  0  0  0
  -19.0936    5.1238    0.0705 O   0  0  0  0  0  0  0  0  0  0  0  0
  -21.5236   10.9043   -1.5910 O   0  0  0  0  0  0  0  0  0  0  0  0
  -16.6762   11.2018   -3.5690 O   0  0  0  0  0  0  0  0  0  0  0  0
  -20.2149    9.4026   -3.8220 S   0  0  0  0  0  0  0  0  0  0  0  0
  1  2  2  0
  5  1  1  0
  1 14  1  0
  2 15  1  0
  4  3  1  0
 15  3  2  0
 14  4  2  0
  4 26  1  0
  6  5  2  0
  5 28  1  0
 30  6  1  0
  8  7  1  0
 16  7  1  0
  7 35  1  6
  9  8  1  0
  8 30  1  6
 17  9  1  0
  9 37  1  1
 19 10  1  0
 10 39  1  0
 21 11  1  0
 11 23  1  0
 11 25  2  0
 23 12  2  0
 12 24  1  0
 12 27  1  0
 13 24  2  0
 25 13  1  0
 16 18  1  6
 34 16  1  0
 17 34  1  0
 17 39  1  6
 18 36  1  0
 20 19  1  0
 19 38  1  6
 31 20  1  0
 22 21  2  0
 21 33  1  0
 22 31  1  0
 28 29  2  0
 29 30  1  0
 31 32  1  0
 32 33  2  0
M  END
$$$$
