
     RDKit          3D

 39 43  0  0  0  0  0  0  0  0999 V2000
  -13.2944    8.3900   -0.8936 C   0  0  0  0  0  0  0  0  0  0  0  0
  -12.1882    9.0774   -1.2999 C   0  0  0  0  0  0  0  0  0  0  0  0
  -10.7725    7.3326   -0.4775 C   0  0  0  0  0  0  0  0  0  0  0  0
  -11.8774    6.5966   -0.0466 C   0  0  0  0  0  0  0  0  0  0  0  0
  -14.6463    8.9100   -1.0922 C   0  0  0  0  0  0  0  0  0  0  0  0
  -15.7351    8.1959   -1.5494 C   0  0  0  0  0  0  0  0  0  0  0  0
  -18.7029    7.5031   -1.1290 C   0  0  2  0  0  0  0  0  0  0  0  0
  -18.1418    8.5184   -2.0512 C   0  0  1  0  0  0  0  0  0  0  0  0
  -19.0429    9.6669   -2.3598 C   0  0  2  0  0  0  0  0  0  0  0  0
  -23.2542   10.1465   -3.1284 C   0  0  0  0  0  0  0  0  0  0  0  0
  -27.2959    7.7568    2.2354 C   0  0  0  0  0  0  0  0  0  0  0  0
  -28.8708    7.0444    3.9370 C   0  0  0  0  0  0  0  0  0  0  0  0
  -26.5555    6.7721    4.3022 C   0  0  0  0  0  0  0  0  0  0  0  0
  -13.1055    7.1711   -0.2798 C   0  0  0  0  0  0  0  0  0  0  0  0
  -10.9122    8.5516   -1.0940 C   0  0  0  0  0  0  0  0  0  0  0  0
  -20.1755    7.3978   -1.0192 C   0  0  1  0  0  0  0  0  0  0  0  0
  -20.4688    9.1942   -2.4413 C   0  0  1  0  0  0  0  0  0  0  0  0
  -20.6235    6.8417    0.3317 C   0  0  0  0  0  0  0  0  0  0  0  0
  -24.1319   10.0657   -1.9069 C   0  0  1  0  0  0  0  0  0  0  0  0
  -25.1601    8.9850   -2.1485 C   0  0  0  0  0  0  0  0  0  0  0  0
  -27.0093    8.3441    0.9222 C   0  0  0  0  0  0  0  0  0  0  0  0
  -25.9386    8.1617    0.0999 C   0  0  0  0  0  0  0  0  0  0  0  0
  -28.5860    7.6052    2.6912 C   0  0  0  0  0  0  0  0  0  0  0  0
  -27.8453    6.6206    4.7573 C   0  0  0  0  0  0  0  0  0  0  0  0
  -26.2729    7.3336    3.0548 C   0  0  0  0  0  0  0  0  0  0  0  0
  -11.7607    5.3977    0.5590 F   0  0  0  0  0  0  0  0  0  0  0  0
  -30.1649    6.9118    4.3488 F   0  0  0  0  0  0  0  0  0  0  0  0
  -15.1302   10.1468   -0.8818 N   0  0  0  0  0  0  0  0  0  0  0  0
  -16.4383   10.1707   -1.1965 N   0  0  0  0  0  0  0  0  0  0  0  0
  -16.8172    8.9837   -1.6053 N   0  0  0  0  0  0  0  0  0  0  0  0
  -26.0906    8.9000   -1.0125 N   0  0  0  0  0  0  0  0  0  0  0  0
  -27.2453    9.5302   -0.8739 N   0  0  0  0  0  0  0  0  0  0  0  0
  -27.8140    9.2114    0.2799 N   0  0  0  0  0  0  0  0  0  0  0  0
  -20.9073    8.5191   -1.3507 O   0  0  0  0  0  0  0  0  0  0  0  0
  -18.2068    7.8064    0.1622 O   0  0  0  0  0  0  0  0  0  0  0  0
  -21.6616    5.9519    0.2444 O   0  0  0  0  0  0  0  0  0  0  0  0
  -18.6998   10.1628   -3.6201 O   0  0  0  0  0  0  0  0  0  0  0  0
  -23.4196    9.7571   -0.7766 O   0  0  0  0  0  0  0  0  0  0  0  0
  -21.5512   10.5700   -2.8147 S   0  0  0  0  0  0  0  0  0  0  0  0
  1  2  2  0
  5  1  1  0
  1 14  1  0
  2 15  1  0
  4  3  1  0
 15  3  2  0
 14  4  2  0
  4 26  1  0
  6  5  2  0
  5 28  1  0
 30  6  1  0
  8  7  1  0
 16  7  1  0
  7 35  1  1
  9  8  1  0
  8 30  1  1
 17  9  1  0
  9 37  1  6
 19 10  1  0
 10 39  1  0
 21 11  1  0
 11 23  1  0
 11 25  2  0
 23 12  2  0
 12 24  1  0
 12 27  1  0
 13 24  2  0
 25 13  1  0
 16 18  1  1
 34 16  1  0
 17 34  1  0
 17 39  1  1
 18 36  1  0
 20 19  1  0
 19 38  1  1
 31 20  1  0
 22 21  2  0
 21 33  1  0
 22 31  1  0
 28 29  2  0
 29 30  1  0
 31 32  1  0
 32 33  2  0
M  END
$$$$
