
     RDKit          3D

 39 43  0  0  0  0  0  0  0  0999 V2000
  -13.2303    9.2881   -0.8063 C   0  0  0  0  0  0  0  0  0  0  0  0
  -12.9816   10.0549   -1.9070 C   0  0  0  0  0  0  0  0  0  0  0  0
  -10.6256    9.8703   -1.5328 C   0  0  0  0  0  0  0  0  0  0  0  0
  -10.8356    9.0824   -0.4000 C   0  0  0  0  0  0  0  0  0  0  0  0
  -14.5901    8.9555   -0.3845 C   0  0  0  0  0  0  0  0  0  0  0  0
  -15.6532    8.6658   -1.2155 C   0  0  0  0  0  0  0  0  0  0  0  0
  -18.2970    6.5926   -1.0459 C   0  0  2  0  0  0  0  0  0  0  0  0
  -18.0524    8.0537   -1.0852 C   0  0  1  0  0  0  0  0  0  0  0  0
  -19.1459    8.8988   -0.5227 C   0  0  2  0  0  0  0  0  0  0  0  0
  -23.4365    8.6131   -0.2854 C   0  0  0  0  0  0  0  0  0  0  0  0
  -28.5719   13.2486    1.3259 C   0  0  0  0  0  0  0  0  0  0  0  0
  -30.1440   14.4054    2.7660 C   0  0  0  0  0  0  0  0  0  0  0  0
  -28.6166   15.6502    1.4676 C   0  0  0  0  0  0  0  0  0  0  0  0
  -12.1504    8.8253   -0.0867 C   0  0  0  0  0  0  0  0  0  0  0  0
  -11.6709   10.3535   -2.2808 C   0  0  0  0  0  0  0  0  0  0  0  0
  -19.6988    6.1212   -0.9788 C   0  0  1  0  0  0  0  0  0  0  0  0
  -20.4834    8.2895   -0.8439 C   0  0  1  0  0  0  0  0  0  0  0  0
  -19.8238    4.7488   -0.3187 C   0  0  0  0  0  0  0  0  0  0  0  0
  -24.5235    9.4291    0.3640 C   0  0  1  0  0  0  0  0  0  0  0  0
  -25.5160    9.8122   -0.7091 C   0  0  0  0  0  0  0  0  0  0  0  0
  -28.0092   12.0087    0.7806 C   0  0  0  0  0  0  0  0  0  0  0  0
  -26.7687   11.7623    0.2744 C   0  0  0  0  0  0  0  0  0  0  0  0
  -29.6033   13.2323    2.2376 C   0  0  0  0  0  0  0  0  0  0  0  0
  -29.6474   15.6334    2.3791 C   0  0  0  0  0  0  0  0  0  0  0  0
  -28.0769   14.4747    0.9402 C   0  0  0  0  0  0  0  0  0  0  0  0
   -9.8228    8.5976    0.3461 F   0  0  0  0  0  0  0  0  0  0  0  0
  -31.1654   14.3430    3.6686 F   0  0  0  0  0  0  0  0  0  0  0  0
  -15.1039    8.8516    0.8537 N   0  0  0  0  0  0  0  0  0  0  0  0
  -16.4047    8.5178    0.7674 N   0  0  0  0  0  0  0  0  0  0  0  0
  -16.7496    8.4020   -0.4924 N   0  0  0  0  0  0  0  0  0  0  0  0
  -26.6840   10.4782   -0.1125 N   0  0  0  0  0  0  0  0  0  0  0  0
  -27.8629    9.9411    0.1543 N   0  0  0  0  0  0  0  0  0  0  0  0
  -28.6739   10.8415    0.6909 N   0  0  0  0  0  0  0  0  0  0  0  0
  -20.6274    6.9981   -0.4578 O   0  0  0  0  0  0  0  0  0  0  0  0
  -17.6331    6.0987    0.1033 O   0  0  0  0  0  0  0  0  0  0  0  0
  -21.1027    4.2575   -0.3070 O   0  0  0  0  0  0  0  0  0  0  0  0
  -19.0989   10.1459   -1.1509 O   0  0  0  0  0  0  0  0  0  0  0  0
  -25.1780    8.7317    1.3466 O   0  0  0  0  0  0  0  0  0  0  0  0
  -21.7969    9.3036   -0.1728 S   0  0  0  0  0  0  0  0  0  0  0  0
  1  2  2  0
  5  1  1  0
  1 14  1  0
  2 15  1  0
  4  3  1  0
 15  3  2  0
 14  4  2  0
  4 26  1  0
  6  5  2  0
  5 28  1  0
 30  6  1  0
  8  7  1  0
 16  7  1  0
  7 35  1  1
  9  8  1  0
  8 30  1  1
 17  9  1  0
  9 37  1  6
 19 10  1  0
 10 39  1  0
 21 11  1  0
 11 23  1  0
 11 25  2  0
 23 12  2  0
 12 24  1  0
 12 27  1  0
 13 24  2  0
 25 13  1  0
 16 18  1  1
 34 16  1  0
 17 34  1  0
 17 39  1  1
 18 36  1  0
 20 19  1  0
 19 38  1  1
 31 20  1  0
 22 21  2  0
 21 33  1  0
 22 31  1  0
 28 29  2  0
 29 30  1  0
 31 32  1  0
 32 33  2  0
M  END
$$$$
