
     RDKit          3D

 39 43  0  0  0  0  0  0  0  0999 V2000
  -24.5931    9.9804    2.2407 C   0  0  0  0  0  0  0  0  0  0  0  0
  -25.6443    9.6087    1.4545 C   0  0  0  0  0  0  0  0  0  0  0  0
  -27.1852   10.5122    3.0464 C   0  0  0  0  0  0  0  0  0  0  0  0
  -26.1389   10.9095    3.8805 C   0  0  0  0  0  0  0  0  0  0  0  0
  -23.2069    9.7196    1.8555 C   0  0  0  0  0  0  0  0  0  0  0  0
  -22.7759    8.7584    0.9641 C   0  0  0  0  0  0  0  0  0  0  0  0
  -21.5207    6.8132   -0.5766 C   0  0  2  0  0  0  0  0  0  0  0  0
  -20.6744    7.9029   -0.0359 C   0  0  1  0  0  0  0  0  0  0  0  0
  -19.9002    8.6734   -1.0523 C   0  0  2  0  0  0  0  0  0  0  0  0
  -17.0082    7.9005   -3.9421 C   0  0  0  0  0  0  0  0  0  0  0  0
  -12.7553   10.1199   -0.4471 C   0  0  0  0  0  0  0  0  0  0  0  0
  -10.8329   10.3607    1.0121 C   0  0  0  0  0  0  0  0  0  0  0  0
  -12.9197    9.7421    1.9235 C   0  0  0  0  0  0  0  0  0  0  0  0
  -24.8721   10.6192    3.4290 C   0  0  0  0  0  0  0  0  0  0  0  0
  -26.9551    9.8729    1.8531 C   0  0  0  0  0  0  0  0  0  0  0  0
  -21.1609    6.2374   -1.8921 C   0  0  1  0  0  0  0  0  0  0  0  0
  -19.4395    7.7555   -2.1517 C   0  0  1  0  0  0  0  0  0  0  0  0
  -22.3654    5.6419   -2.6197 C   0  0  0  0  0  0  0  0  0  0  0  0
  -16.1750    8.7279   -4.8856 C   0  0  1  0  0  0  0  0  0  0  0  0
  -16.0151   10.1014   -4.2762 C   0  0  0  0  0  0  0  0  0  0  0  0
  -13.3646   10.1724   -1.7803 C   0  0  0  0  0  0  0  0  0  0  0  0
  -14.6714   10.0566   -2.1474 C   0  0  0  0  0  0  0  0  0  0  0  0
  -11.4224   10.4037   -0.2520 C   0  0  0  0  0  0  0  0  0  0  0  0
  -11.5873   10.0260    2.1180 C   0  0  0  0  0  0  0  0  0  0  0  0
  -13.5076    9.7859    0.6572 C   0  0  0  0  0  0  0  0  0  0  0  0
  -26.3444   11.5394    5.0546 F   0  0  0  0  0  0  0  0  0  0  0  0
   -9.5077   10.6506    1.1602 F   0  0  0  0  0  0  0  0  0  0  0  0
  -22.0760   10.3281    2.2540 N   0  0  0  0  0  0  0  0  0  0  0  0
  -21.0251    9.7608    1.6339 N   0  0  0  0  0  0  0  0  0  0  0  0
  -21.4424    8.8009    0.8437 N   0  0  0  0  0  0  0  0  0  0  0  0
  -14.7787   10.1687   -3.4822 N   0  0  0  0  0  0  0  0  0  0  0  0
  -13.5478   10.3520   -3.9304 N   0  0  0  0  0  0  0  0  0  0  0  0
  -12.6829   10.3577   -2.9263 N   0  0  0  0  0  0  0  0  0  0  0  0
  -20.4250    7.0363   -2.7424 O   0  0  0  0  0  0  0  0  0  0  0  0
  -22.8324    7.3344   -0.6917 O   0  0  0  0  0  0  0  0  0  0  0  0
  -22.1465    4.3802   -3.1067 O   0  0  0  0  0  0  0  0  0  0  0  0
  -18.7559    9.1828   -0.4333 O   0  0  0  0  0  0  0  0  0  0  0  0
  -14.9326    8.1853   -5.0915 O   0  0  0  0  0  0  0  0  0  0  0  0
  -18.5075    8.6772   -3.3707 S   0  0  0  0  0  0  0  0  0  0  0  0
  1  2  2  0
  5  1  1  0
  1 14  1  0
  2 15  1  0
  4  3  1  0
 15  3  2  0
 14  4  2  0
  4 26  1  0
  6  5  2  0
  5 28  1  0
 30  6  1  0
  8  7  1  0
 16  7  1  0
  7 35  1  6
  9  8  1  0
  8 30  1  6
 17  9  1  0
  9 37  1  1
 19 10  1  0
 10 39  1  0
 21 11  1  0
 11 23  1  0
 11 25  2  0
 23 12  2  0
 12 24  1  0
 12 27  1  0
 13 24  2  0
 25 13  1  0
 16 18  1  6
 34 16  1  0
 17 34  1  0
 17 39  1  6
 18 36  1  0
 20 19  1  0
 19 38  1  1
 31 20  1  0
 22 21  2  0
 21 33  1  0
 22 31  1  0
 28 29  2  0
 29 30  1  0
 31 32  1  0
 32 33  2  0
M  END
$$$$
