
     RDKit          3D

 39 43  0  0  0  0  0  0  0  0999 V2000
  -13.2216    8.3389   -1.1719 C   0  0  0  0  0  0  0  0  0  0  0  0
  -12.6074    8.4274   -2.3869 C   0  0  0  0  0  0  0  0  0  0  0  0
  -10.5440    7.6925   -1.4242 C   0  0  0  0  0  0  0  0  0  0  0  0
  -11.1334    7.5880   -0.1633 C   0  0  0  0  0  0  0  0  0  0  0  0
  -14.6340    8.6706   -0.9914 C   0  0  0  0  0  0  0  0  0  0  0  0
  -15.7058    7.9997   -1.5442 C   0  0  0  0  0  0  0  0  0  0  0  0
  -18.5586    6.8398   -0.8788 C   0  0  2  0  0  0  0  0  0  0  0  0
  -18.1835    8.0872   -1.5854 C   0  0  1  0  0  0  0  0  0  0  0  0
  -19.1987    9.1795   -1.5339 C   0  0  2  0  0  0  0  0  0  0  0  0
  -23.4615    9.4341   -1.9911 C   0  0  0  0  0  0  0  0  0  0  0  0
  -28.5583    8.2628    2.8045 C   0  0  0  0  0  0  0  0  0  0  0  0
  -30.2346    6.5102    2.8433 C   0  0  0  0  0  0  0  0  0  0  0  0
  -30.4975    8.4074    4.2216 C   0  0  0  0  0  0  0  0  0  0  0  0
  -12.4664    7.9219   -0.0977 C   0  0  0  0  0  0  0  0  0  0  0  0
  -11.2571    8.1034   -2.5234 C   0  0  0  0  0  0  0  0  0  0  0  0
  -19.9973    6.5655   -0.6631 C   0  0  1  0  0  0  0  0  0  0  0  0
  -20.5843    8.5966   -1.5935 C   0  0  1  0  0  0  0  0  0  0  0  0
  -20.2477    5.6784    0.5556 C   0  0  0  0  0  0  0  0  0  0  0  0
  -24.5319    9.8079   -0.9993 C   0  0  1  0  0  0  0  0  0  0  0  0
  -24.2839    9.0197    0.2659 C   0  0  0  0  0  0  0  0  0  0  0  0
  -27.2981    8.8175    2.2988 C   0  0  0  0  0  0  0  0  0  0  0  0
  -26.4557    8.3378    1.3418 C   0  0  0  0  0  0  0  0  0  0  0  0
  -29.0391    7.0495    2.3665 C   0  0  0  0  0  0  0  0  0  0  0  0
  -30.9776    7.1943    3.7836 C   0  0  0  0  0  0  0  0  0  0  0  0
  -29.3005    8.9451    3.7430 C   0  0  0  0  0  0  0  0  0  0  0  0
  -10.4505    7.1852    0.9271 F   0  0  0  0  0  0  0  0  0  0  0  0
  -30.6736    5.3032    2.3824 F   0  0  0  0  0  0  0  0  0  0  0  0
  -15.1995    9.6573   -0.2740 N   0  0  0  0  0  0  0  0  0  0  0  0
  -16.5378    9.5803   -0.3917 N   0  0  0  0  0  0  0  0  0  0  0  0
  -16.8569    8.5709   -1.1656 N   0  0  0  0  0  0  0  0  0  0  0  0
  -25.4137    9.1736    1.1951 N   0  0  0  0  0  0  0  0  0  0  0  0
  -25.6153   10.1581    2.0551 N   0  0  0  0  0  0  0  0  0  0  0  0
  -26.7404    9.9651    2.7282 N   0  0  0  0  0  0  0  0  0  0  0  0
  -20.8453    7.6534   -0.6555 O   0  0  0  0  0  0  0  0  0  0  0  0
  -17.9461    6.8938    0.3969 O   0  0  0  0  0  0  0  0  0  0  0  0
  -21.1999    4.7151    0.3495 O   0  0  0  0  0  0  0  0  0  0  0  0
  -19.0374    9.9774   -2.6693 O   0  0  0  0  0  0  0  0  0  0  0  0
  -24.5163   11.1459   -0.6999 O   0  0  0  0  0  0  0  0  0  0  0  0
  -21.8039    9.9055   -1.5350 S   0  0  0  0  0  0  0  0  0  0  0  0
  1  2  2  0
  5  1  1  0
  1 14  1  0
  2 15  1  0
  4  3  1  0
 15  3  2  0
 14  4  2  0
  4 26  1  0
  6  5  2  0
  5 28  1  0
 30  6  1  0
  8  7  1  0
 16  7  1  0
  7 35  1  1
  9  8  1  0
  8 30  1  1
 17  9  1  0
  9 37  1  6
 19 10  1  0
 10 39  1  0
 21 11  1  0
 11 23  1  0
 11 25  2  0
 23 12  2  0
 12 24  1  0
 12 27  1  0
 13 24  2  0
 25 13  1  0
 16 18  1  1
 34 16  1  0
 17 34  1  0
 17 39  1  1
 18 36  1  0
 20 19  1  0
 19 38  1  1
 31 20  1  0
 22 21  2  0
 21 33  1  0
 22 31  1  0
 28 29  2  0
 29 30  1  0
 31 32  1  0
 32 33  2  0
M  END
$$$$
