
     RDKit          3D

 39 43  0  0  0  0  0  0  0  0999 V2000
  -27.6654    9.4789    2.8701 C   0  0  0  0  0  0  0  0  0  0  0  0
  -28.1886    8.2674    3.2161 C   0  0  0  0  0  0  0  0  0  0  0  0
  -29.6030    9.3144    4.8372 C   0  0  0  0  0  0  0  0  0  0  0  0
  -29.0946   10.5733    4.5136 C   0  0  0  0  0  0  0  0  0  0  0  0
  -26.6397    9.6136    1.8369 C   0  0  0  0  0  0  0  0  0  0  0  0
  -25.4446    8.9259    1.7805 C   0  0  0  0  0  0  0  0  0  0  0  0
  -23.5449    7.6105   -0.6069 C   0  0  2  0  0  0  0  0  0  0  0  0
  -23.4289    8.7370    0.3489 C   0  0  1  0  0  0  0  0  0  0  0  0
  -22.4761    9.8145   -0.0478 C   0  0  2  0  0  0  0  0  0  0  0  0
  -18.6440   10.6004   -0.2571 C   0  0  0  0  0  0  0  0  0  0  0  0
  -12.2345    9.1348   -0.6235 C   0  0  0  0  0  0  0  0  0  0  0  0
  -11.2022    8.0841    1.3036 C   0  0  0  0  0  0  0  0  0  0  0  0
   -9.8562    8.7911   -0.5011 C   0  0  0  0  0  0  0  0  0  0  0  0
  -28.1341   10.5945    3.5288 C   0  0  0  0  0  0  0  0  0  0  0  0
  -29.1663    8.1750    4.2073 C   0  0  0  0  0  0  0  0  0  0  0  0
  -22.4152    7.3594   -1.5301 C   0  0  1  0  0  0  0  0  0  0  0  0
  -21.2863    9.2165   -0.7477 C   0  0  1  0  0  0  0  0  0  0  0  0
  -22.8559    6.6691   -2.8202 C   0  0  0  0  0  0  0  0  0  0  0  0
  -17.5447    9.6630   -0.6838 C   0  0  1  0  0  0  0  0  0  0  0  0
  -16.9618   10.1926   -1.9735 C   0  0  0  0  0  0  0  0  0  0  0  0
  -13.4236    9.6153   -1.3354 C   0  0  0  0  0  0  0  0  0  0  0  0
  -14.7411    9.5021   -1.0084 C   0  0  0  0  0  0  0  0  0  0  0  0
  -12.3260    8.5483    0.6186 C   0  0  0  0  0  0  0  0  0  0  0  0
   -9.9482    8.2047    0.7405 C   0  0  0  0  0  0  0  0  0  0  0  0
  -10.9825    9.2548   -1.1848 C   0  0  0  0  0  0  0  0  0  0  0  0
  -29.5116   11.7033    5.1194 F   0  0  0  0  0  0  0  0  0  0  0  0
  -11.3388    7.5077    2.5329 F   0  0  0  0  0  0  0  0  0  0  0  0
  -26.6188   10.3975    0.7446 N   0  0  0  0  0  0  0  0  0  0  0  0
  -25.4724   10.1894    0.0714 N   0  0  0  0  0  0  0  0  0  0  0  0
  -24.7484    9.2922    0.6962 N   0  0  0  0  0  0  0  0  0  0  0  0
  -15.4944   10.0934   -1.9511 N   0  0  0  0  0  0  0  0  0  0  0  0
  -14.6458   10.5656   -2.8491 N   0  0  0  0  0  0  0  0  0  0  0  0
  -13.3975   10.2901   -2.4999 N   0  0  0  0  0  0  0  0  0  0  0  0
  -21.5876    8.4273   -1.8079 O   0  0  0  0  0  0  0  0  0  0  0  0
  -24.6878    7.8668   -1.4027 O   0  0  0  0  0  0  0  0  0  0  0  0
  -22.1028    5.5709   -3.1424 O   0  0  0  0  0  0  0  0  0  0  0  0
  -22.0050   10.4287    1.1154 O   0  0  0  0  0  0  0  0  0  0  0  0
  -16.5466    9.5748    0.2522 O   0  0  0  0  0  0  0  0  0  0  0  0
  -20.1402   10.5072   -1.2217 S   0  0  0  0  0  0  0  0  0  0  0  0
  1  2  2  0
  5  1  1  0
  1 14  1  0
  2 15  1  0
  4  3  1  0
 15  3  2  0
 14  4  2  0
  4 26  1  0
  6  5  2  0
  5 28  1  0
 30  6  1  0
  8  7  1  0
 16  7  1  0
  7 35  1  6
  9  8  1  0
  8 30  1  6
 17  9  1  0
  9 37  1  1
 19 10  1  0
 10 39  1  0
 21 11  1  0
 11 23  1  0
 11 25  2  0
 23 12  2  0
 12 24  1  0
 12 27  1  0
 13 24  2  0
 25 13  1  0
 16 18  1  6
 34 16  1  0
 17 34  1  0
 17 39  1  6
 18 36  1  0
 20 19  1  0
 19 38  1  1
 31 20  1  0
 22 21  2  0
 21 33  1  0
 22 31  1  0
 28 29  2  0
 29 30  1  0
 31 32  1  0
 32 33  2  0
M  END
$$$$
