
     RDKit          3D

 39 43  0  0  0  0  0  0  0  0999 V2000
  -13.1533    8.5881   -2.7000 C   0  0  0  0  0  0  0  0  0  0  0  0
  -12.5872    7.3902   -2.3745 C   0  0  0  0  0  0  0  0  0  0  0  0
  -10.5168    8.0739   -3.3596 C   0  0  0  0  0  0  0  0  0  0  0  0
  -11.0568    9.3120   -3.7110 C   0  0  0  0  0  0  0  0  0  0  0  0
  -14.5428    8.9033   -2.3719 C   0  0  0  0  0  0  0  0  0  0  0  0
  -15.5848    8.0024   -2.2877 C   0  0  0  0  0  0  0  0  0  0  0  0
  -17.8819    6.7348   -0.9527 C   0  0  2  0  0  0  0  0  0  0  0  0
  -18.0134    7.9501   -1.7904 C   0  0  1  0  0  0  0  0  0  0  0  0
  -19.0786    8.9050   -1.3663 C   0  0  2  0  0  0  0  0  0  0  0  0
  -23.1391    8.5641    0.0074 C   0  0  0  0  0  0  0  0  0  0  0  0
  -29.8798    9.8114   -1.7777 C   0  0  0  0  0  0  0  0  0  0  0  0
  -31.8615    8.7123   -0.9127 C   0  0  0  0  0  0  0  0  0  0  0  0
  -32.0856   10.6687   -2.2130 C   0  0  0  0  0  0  0  0  0  0  0  0
  -12.3714    9.5121   -3.3579 C   0  0  0  0  0  0  0  0  0  0  0  0
  -11.2580    7.1223   -2.7033 C   0  0  0  0  0  0  0  0  0  0  0  0
  -19.0566    6.3012   -0.1629 C   0  0  1  0  0  0  0  0  0  0  0  0
  -20.2673    8.1482   -0.8396 C   0  0  1  0  0  0  0  0  0  0  0  0
  -18.6641    5.5041    1.0804 C   0  0  0  0  0  0  0  0  0  0  0  0
  -24.3265    9.4234   -0.3402 C   0  0  1  0  0  0  0  0  0  0  0  0
  -24.9434    8.8685   -1.6031 C   0  0  0  0  0  0  0  0  0  0  0  0
  -28.4225    9.8947   -1.9219 C   0  0  0  0  0  0  0  0  0  0  0  0
  -27.4547    9.0268   -1.5150 C   0  0  0  0  0  0  0  0  0  0  0  0
  -30.4765    8.7996   -1.0598 C   0  0  0  0  0  0  0  0  0  0  0  0
  -32.6815    9.6571   -1.4951 C   0  0  0  0  0  0  0  0  0  0  0  0
  -30.6990   10.7540   -2.3587 C   0  0  0  0  0  0  0  0  0  0  0  0
  -10.3449   10.2594   -4.3539 F   0  0  0  0  0  0  0  0  0  0  0  0
  -32.4109    7.6928   -0.1912 F   0  0  0  0  0  0  0  0  0  0  0  0
  -15.1092   10.0879   -2.0822 N   0  0  0  0  0  0  0  0  0  0  0  0
  -16.4198    9.9048   -1.8380 N   0  0  0  0  0  0  0  0  0  0  0  0
  -16.7200    8.6342   -1.9610 N   0  0  0  0  0  0  0  0  0  0  0  0
  -26.2458    9.5026   -1.8585 N   0  0  0  0  0  0  0  0  0  0  0  0
  -26.4702   10.6531   -2.4713 N   0  0  0  0  0  0  0  0  0  0  0  0
  -27.7697   10.9084   -2.5207 N   0  0  0  0  0  0  0  0  0  0  0  0
  -19.9872    7.2689    0.1534 O   0  0  0  0  0  0  0  0  0  0  0  0
  -16.8296    6.9819   -0.0379 O   0  0  0  0  0  0  0  0  0  0  0  0
  -19.7120    4.8418    1.6637 O   0  0  0  0  0  0  0  0  0  0  0  0
  -19.5051    9.6103   -2.4945 O   0  0  0  0  0  0  0  0  0  0  0  0
  -25.2723    9.4263    0.6526 O   0  0  0  0  0  0  0  0  0  0  0  0
  -21.5478    9.2918   -0.3332 S   0  0  0  0  0  0  0  0  0  0  0  0
  1  2  2  0
  5  1  1  0
  1 14  1  0
  2 15  1  0
  4  3  1  0
 15  3  2  0
 14  4  2  0
  4 26  1  0
  6  5  2  0
  5 28  1  0
 30  6  1  0
  8  7  1  0
 16  7  1  0
  7 35  1  1
  9  8  1  0
  8 30  1  1
 17  9  1  0
  9 37  1  6
 19 10  1  0
 10 39  1  0
 21 11  1  0
 11 23  1  0
 11 25  2  0
 23 12  2  0
 12 24  1  0
 12 27  1  0
 13 24  2  0
 25 13  1  0
 16 18  1  1
 34 16  1  0
 17 34  1  0
 17 39  1  1
 18 36  1  0
 20 19  1  0
 19 38  1  1
 31 20  1  0
 22 21  2  0
 21 33  1  0
 22 31  1  0
 28 29  2  0
 29 30  1  0
 31 32  1  0
 32 33  2  0
M  END
$$$$
