
     RDKit          3D

 39 43  0  0  0  0  0  0  0  0999 V2000
  -12.8933    8.3603   -1.4251 C   0  0  0  0  0  0  0  0  0  0  0  0
  -11.8428    9.0594   -0.9067 C   0  0  0  0  0  0  0  0  0  0  0  0
  -10.2997    7.5269   -1.9044 C   0  0  0  0  0  0  0  0  0  0  0  0
  -11.3453    6.7830   -2.4536 C   0  0  0  0  0  0  0  0  0  0  0  0
  -14.2802    8.7632   -1.1976 C   0  0  0  0  0  0  0  0  0  0  0  0
  -15.4044    8.1193   -1.6730 C   0  0  0  0  0  0  0  0  0  0  0  0
  -18.0961    6.8972   -1.2504 C   0  0  2  0  0  0  0  0  0  0  0  0
  -17.8752    8.3178   -1.6095 C   0  0  1  0  0  0  0  0  0  0  0  0
  -18.8967    9.2733   -1.0900 C   0  0  2  0  0  0  0  0  0  0  0  0
  -22.8391    9.0439    0.4078 C   0  0  0  0  0  0  0  0  0  0  0  0
  -28.3606   13.2398   -0.1242 C   0  0  0  0  0  0  0  0  0  0  0  0
  -28.4096   15.4957    0.7656 C   0  0  0  0  0  0  0  0  0  0  0  0
  -30.4173   14.4748    0.0619 C   0  0  0  0  0  0  0  0  0  0  0  0
  -12.6129    7.2441   -2.1825 C   0  0  0  0  0  0  0  0  0  0  0  0
  -10.5312    8.6462   -1.1434 C   0  0  0  0  0  0  0  0  0  0  0  0
  -19.4722    6.4687   -0.9119 C   0  0  1  0  0  0  0  0  0  0  0  0
  -20.2574    8.6320   -1.1097 C   0  0  1  0  0  0  0  0  0  0  0  0
  -19.4957    5.2560    0.0175 C   0  0  0  0  0  0  0  0  0  0  0  0
  -24.0928    9.8763    0.4736 C   0  0  1  0  0  0  0  0  0  0  0  0
  -24.7636    9.8075   -0.8787 C   0  0  0  0  0  0  0  0  0  0  0  0
  -27.6245   12.0284   -0.5011 C   0  0  0  0  0  0  0  0  0  0  0  0
  -26.3025   11.7315   -0.3597 C   0  0  0  0  0  0  0  0  0  0  0  0
  -27.7202   14.3365    0.4070 C   0  0  0  0  0  0  0  0  0  0  0  0
  -29.7765   15.5709    0.5927 C   0  0  0  0  0  0  0  0  0  0  0  0
  -29.7250   13.3157   -0.2964 C   0  0  0  0  0  0  0  0  0  0  0  0
  -11.1383    5.6826   -3.2044 F   0  0  0  0  0  0  0  0  0  0  0  0
  -27.7345   16.5603    1.2879 F   0  0  0  0  0  0  0  0  0  0  0  0
  -14.7687    9.8037   -0.4998 N   0  0  0  0  0  0  0  0  0  0  0  0
  -16.1131    9.7828   -0.5553 N   0  0  0  0  0  0  0  0  0  0  0  0
  -16.5110    8.7577   -1.2697 N   0  0  0  0  0  0  0  0  0  0  0  0
  -26.0600   10.5015   -0.8434 N   0  0  0  0  0  0  0  0  0  0  0  0
  -27.2239   10.0473   -1.2779 N   0  0  0  0  0  0  0  0  0  0  0  0
  -28.1770   10.9472   -1.0824 N   0  0  0  0  0  0  0  0  0  0  0  0
  -20.3359    7.4447   -0.4602 O   0  0  0  0  0  0  0  0  0  0  0  0
  -17.2843    6.6309   -0.1211 O   0  0  0  0  0  0  0  0  0  0  0  0
  -20.6079    4.4698   -0.1306 O   0  0  0  0  0  0  0  0  0  0  0  0
  -18.9451   10.3706   -1.9535 O   0  0  0  0  0  0  0  0  0  0  0  0
  -24.9670    9.4219    1.4273 O   0  0  0  0  0  0  0  0  0  0  0  0
  -21.4851    9.7777   -0.4899 S   0  0  0  0  0  0  0  0  0  0  0  0
  1  2  2  0
  5  1  1  0
  1 14  1  0
  2 15  1  0
  4  3  1  0
 15  3  2  0
 14  4  2  0
  4 26  1  0
  6  5  2  0
  5 28  1  0
 30  6  1  0
  8  7  1  0
 16  7  1  0
  7 35  1  1
  9  8  1  0
  8 30  1  1
 17  9  1  0
  9 37  1  6
 19 10  1  0
 10 39  1  0
 21 11  1  0
 11 23  1  0
 11 25  2  0
 23 12  2  0
 12 24  1  0
 12 27  1  0
 13 24  2  0
 25 13  1  0
 16 18  1  1
 34 16  1  0
 17 34  1  0
 17 39  1  1
 18 36  1  0
 20 19  1  0
 19 38  1  1
 31 20  1  0
 22 21  2  0
 21 33  1  0
 22 31  1  0
 28 29  2  0
 29 30  1  0
 31 32  1  0
 32 33  2  0
M  END
$$$$
