
     RDKit          3D

 39 43  0  0  0  0  0  0  0  0999 V2000
  -25.9173    9.7289    1.6922 C   0  0  0  0  0  0  0  0  0  0  0  0
  -25.6321   10.5929    2.7088 C   0  0  0  0  0  0  0  0  0  0  0  0
  -27.8026   10.2380    3.6511 C   0  0  0  0  0  0  0  0  0  0  0  0
  -28.1350    9.3475    2.6291 C   0  0  0  0  0  0  0  0  0  0  0  0
  -24.9522    9.4302    0.6353 C   0  0  0  0  0  0  0  0  0  0  0  0
  -23.6168    9.1307    0.8120 C   0  0  0  0  0  0  0  0  0  0  0  0
  -21.3975    7.0921   -0.5037 C   0  0  2  0  0  0  0  0  0  0  0  0
  -21.6068    8.5590   -0.5226 C   0  0  1  0  0  0  0  0  0  0  0  0
  -20.9953    9.2757   -1.6797 C   0  0  2  0  0  0  0  0  0  0  0  0
  -17.3859    8.8478   -3.9983 C   0  0  0  0  0  0  0  0  0  0  0  0
  -11.9834   10.1614    0.0020 C   0  0  0  0  0  0  0  0  0  0  0  0
   -9.9767   10.6377    1.2787 C   0  0  0  0  0  0  0  0  0  0  0  0
  -10.6560   12.1224   -0.4250 C   0  0  0  0  0  0  0  0  0  0  0  0
  -27.1593    9.1327    1.6832 C   0  0  0  0  0  0  0  0  0  0  0  0
  -26.5772   10.8556    3.7012 C   0  0  0  0  0  0  0  0  0  0  0  0
  -20.2400    6.5426   -1.2453 C   0  0  1  0  0  0  0  0  0  0  0  0
  -19.6830    8.6370   -2.0446 C   0  0  1  0  0  0  0  0  0  0  0  0
  -20.4643    5.0993   -1.6944 C   0  0  0  0  0  0  0  0  0  0  0  0
  -16.1972    9.1864   -3.1373 C   0  0  1  0  0  0  0  0  0  0  0  0
  -16.1964    8.2400   -1.9592 C   0  0  0  0  0  0  0  0  0  0  0  0
  -13.1400    9.3092   -0.2936 C   0  0  0  0  0  0  0  0  0  0  0  0
  -14.1321    9.4731   -1.2126 C   0  0  0  0  0  0  0  0  0  0  0  0
  -11.0827    9.8366    0.9912 C   0  0  0  0  0  0  0  0  0  0  0  0
   -9.7559   11.7972    0.5638 C   0  0  0  0  0  0  0  0  0  0  0  0
  -11.7622   11.3189   -0.7110 C   0  0  0  0  0  0  0  0  0  0  0  0
  -29.3318    8.7302    2.5635 F   0  0  0  0  0  0  0  0  0  0  0  0
   -9.1081   10.2771    2.2673 F   0  0  0  0  0  0  0  0  0  0  0  0
  -25.1276    9.3730   -0.6966 N   0  0  0  0  0  0  0  0  0  0  0  0
  -23.9594    9.0563   -1.2846 N   0  0  0  0  0  0  0  0  0  0  0  0
  -23.0303    8.9062   -0.3713 N   0  0  0  0  0  0  0  0  0  0  0  0
  -14.9917    8.4427   -1.1401 N   0  0  0  0  0  0  0  0  0  0  0  0
  -14.5306    7.6531   -0.1844 N   0  0  0  0  0  0  0  0  0  0  0  0
  -13.4200    8.1535    0.3375 N   0  0  0  0  0  0  0  0  0  0  0  0
  -19.7464    7.3042   -2.2841 O   0  0  0  0  0  0  0  0  0  0  0  0
  -22.5639    6.5066   -1.0532 O   0  0  0  0  0  0  0  0  0  0  0  0
  -19.3672    4.2949   -1.5317 O   0  0  0  0  0  0  0  0  0  0  0  0
  -20.7200   10.5868   -1.2832 O   0  0  0  0  0  0  0  0  0  0  0  0
  -15.0124    9.0542   -3.8147 O   0  0  0  0  0  0  0  0  0  0  0  0
  -18.9460    9.4972   -3.4305 S   0  0  0  0  0  0  0  0  0  0  0  0
  1  2  2  0
  5  1  1  0
  1 14  1  0
  2 15  1  0
  4  3  1  0
 15  3  2  0
 14  4  2  0
  4 26  1  0
  6  5  2  0
  5 28  1  0
 30  6  1  0
  8  7  1  0
 16  7  1  0
  7 35  1  6
  9  8  1  0
  8 30  1  6
 17  9  1  0
  9 37  1  1
 19 10  1  0
 10 39  1  0
 21 11  1  0
 11 23  1  0
 11 25  2  0
 23 12  2  0
 12 24  1  0
 12 27  1  0
 13 24  2  0
 25 13  1  0
 16 18  1  6
 34 16  1  0
 17 34  1  0
 17 39  1  6
 18 36  1  0
 20 19  1  0
 19 38  1  6
 31 20  1  0
 22 21  2  0
 21 33  1  0
 22 31  1  0
 28 29  2  0
 29 30  1  0
 31 32  1  0
 32 33  2  0
M  END
$$$$
