
     RDKit          3D

 39 43  0  0  0  0  0  0  0  0999 V2000
  -13.3034    8.4254   -0.4690 C   0  0  0  0  0  0  0  0  0  0  0  0
  -13.3408    7.8492    0.7671 C   0  0  0  0  0  0  0  0  0  0  0  0
  -10.9841    8.1779    1.0179 C   0  0  0  0  0  0  0  0  0  0  0  0
  -10.9015    8.7737   -0.2416 C   0  0  0  0  0  0  0  0  0  0  0  0
  -14.5035    8.5768   -1.2902 C   0  0  0  0  0  0  0  0  0  0  0  0
  -15.7280    7.9830   -1.0610 C   0  0  0  0  0  0  0  0  0  0  0  0
  -18.2163    6.7213   -1.1467 C   0  0  2  0  0  0  0  0  0  0  0  0
  -18.0018    7.8805   -2.0446 C   0  0  1  0  0  0  0  0  0  0  0  0
  -18.9529    9.0152   -1.8596 C   0  0  2  0  0  0  0  0  0  0  0  0
  -23.1936    9.4265   -1.4179 C   0  0  0  0  0  0  0  0  0  0  0  0
  -28.3102    9.3712    3.6222 C   0  0  0  0  0  0  0  0  0  0  0  0
  -29.6603    8.9021    5.5819 C   0  0  0  0  0  0  0  0  0  0  0  0
  -30.6942    9.0837    3.4685 C   0  0  0  0  0  0  0  0  0  0  0  0
  -12.0857    8.8700   -0.9355 C   0  0  0  0  0  0  0  0  0  0  0  0
  -12.1757    7.7202    1.5240 C   0  0  0  0  0  0  0  0  0  0  0  0
  -19.5636    6.5299   -0.5638 C   0  0  1  0  0  0  0  0  0  0  0  0
  -20.3218    8.4890   -1.5243 C   0  0  1  0  0  0  0  0  0  0  0  0
  -19.5253    5.7712    0.7620 C   0  0  0  0  0  0  0  0  0  0  0  0
  -23.8646    9.1089   -0.1071 C   0  0  1  0  0  0  0  0  0  0  0  0
  -24.6386   10.3332    0.3233 C   0  0  0  0  0  0  0  0  0  0  0  0
  -27.0101    9.6381    2.9977 C   0  0  0  0  0  0  0  0  0  0  0  0
  -26.6991    9.8566    1.6896 C   0  0  0  0  0  0  0  0  0  0  0  0
  -28.4283    9.1531    4.9763 C   0  0  0  0  0  0  0  0  0  0  0  0
  -30.8117    8.8659    4.8222 C   0  0  0  0  0  0  0  0  0  0  0  0
  -29.4599    9.3349    2.8646 C   0  0  0  0  0  0  0  0  0  0  0  0
   -9.7417    9.2305   -0.7550 F   0  0  0  0  0  0  0  0  0  0  0  0
  -29.7318    8.6926    6.9283 F   0  0  0  0  0  0  0  0  0  0  0  0
  -14.6938    9.3001   -2.4076 N   0  0  0  0  0  0  0  0  0  0  0  0
  -15.9642    9.1467   -2.8241 N   0  0  0  0  0  0  0  0  0  0  0  0
  -16.6040    8.3440   -2.0080 N   0  0  0  0  0  0  0  0  0  0  0  0
  -25.3768   10.0618    1.5663 N   0  0  0  0  0  0  0  0  0  0  0  0
  -24.8806    9.9700    2.7890 N   0  0  0  0  0  0  0  0  0  0  0  0
  -25.8429    9.7161    3.6640 N   0  0  0  0  0  0  0  0  0  0  0  0
  -20.3634    7.6490   -0.4611 O   0  0  0  0  0  0  0  0  0  0  0  0
  -17.3098    6.8672   -0.0686 O   0  0  0  0  0  0  0  0  0  0  0  0
  -20.4269    4.7421    0.8342 O   0  0  0  0  0  0  0  0  0  0  0  0
  -19.0589    9.6966   -3.0747 O   0  0  0  0  0  0  0  0  0  0  0  0
  -24.7293    8.0498   -0.2109 O   0  0  0  0  0  0  0  0  0  0  0  0
  -21.4653    9.8485   -1.3050 S   0  0  0  0  0  0  0  0  0  0  0  0
  1  2  2  0
  5  1  1  0
  1 14  1  0
  2 15  1  0
  4  3  1  0
 15  3  2  0
 14  4  2  0
  4 26  1  0
  6  5  2  0
  5 28  1  0
 30  6  1  0
  8  7  1  0
 16  7  1  0
  7 35  1  1
  9  8  1  0
  8 30  1  1
 17  9  1  0
  9 37  1  6
 19 10  1  0
 10 39  1  0
 21 11  1  0
 11 23  1  0
 11 25  2  0
 23 12  2  0
 12 24  1  0
 12 27  1  0
 13 24  2  0
 25 13  1  0
 16 18  1  1
 34 16  1  0
 17 34  1  0
 17 39  1  1
 18 36  1  0
 20 19  1  0
 19 38  1  6
 31 20  1  0
 22 21  2  0
 21 33  1  0
 22 31  1  0
 28 29  2  0
 29 30  1  0
 31 32  1  0
 32 33  2  0
M  END
$$$$
