
     RDKit          3D

 39 43  0  0  0  0  0  0  0  0999 V2000
  -27.5441    8.8911    3.4595 C   0  0  0  0  0  0  0  0  0  0  0  0
  -28.6755    8.2746    3.9079 C   0  0  0  0  0  0  0  0  0  0  0  0
  -28.0033    8.6374    6.1753 C   0  0  0  0  0  0  0  0  0  0  0  0
  -26.8335    9.2750    5.7593 C   0  0  0  0  0  0  0  0  0  0  0  0
  -27.2597    9.0474    2.0339 C   0  0  0  0  0  0  0  0  0  0  0  0
  -26.0504    8.8090    1.4133 C   0  0  0  0  0  0  0  0  0  0  0  0
  -25.3986    9.3178   -2.2123 C   0  0  2  0  0  0  0  0  0  0  0  0
  -25.0278    8.8851   -0.8443 C   0  0  1  0  0  0  0  0  0  0  0  0
  -23.7730    9.4847   -0.3038 C   0  0  2  0  0  0  0  0  0  0  0  0
  -19.7655    9.9507   -1.6481 C   0  0  0  0  0  0  0  0  0  0  0  0
  -13.2116    8.0671    0.0871 C   0  0  0  0  0  0  0  0  0  0  0  0
  -11.2333    9.4309   -0.2441 C   0  0  0  0  0  0  0  0  0  0  0  0
  -11.0768    7.4293    0.9957 C   0  0  0  0  0  0  0  0  0  0  0  0
  -26.6581    9.3725    4.3983 C   0  0  0  0  0  0  0  0  0  0  0  0
  -28.9153    8.1421    5.2760 C   0  0  0  0  0  0  0  0  0  0  0  0
  -24.3271    9.8282   -3.0973 C   0  0  1  0  0  0  0  0  0  0  0  0
  -22.7632    9.6453   -1.4073 C   0  0  1  0  0  0  0  0  0  0  0  0
  -24.8537   10.7968   -4.1554 C   0  0  0  0  0  0  0  0  0  0  0  0
  -18.6166    9.4827   -0.7936 C   0  0  1  0  0  0  0  0  0  0  0  0
  -17.9840    8.2952   -1.4815 C   0  0  0  0  0  0  0  0  0  0  0  0
  -14.6435    7.8196   -0.1125 C   0  0  0  0  0  0  0  0  0  0  0  0
  -15.5360    8.4617   -0.9167 C   0  0  0  0  0  0  0  0  0  0  0  0
  -12.5939    9.1832   -0.4307 C   0  0  0  0  0  0  0  0  0  0  0  0
  -10.4600    8.5452    0.4781 C   0  0  0  0  0  0  0  0  0  0  0  0
  -12.4389    7.1835    0.8077 C   0  0  0  0  0  0  0  0  0  0  0  0
  -25.9272    9.7690    6.6266 F   0  0  0  0  0  0  0  0  0  0  0  0
  -10.6619   10.5510   -0.7741 F   0  0  0  0  0  0  0  0  0  0  0  0
  -28.0704    9.4364    1.0341 N   0  0  0  0  0  0  0  0  0  0  0  0
  -27.3823    9.4308   -0.1223 N   0  0  0  0  0  0  0  0  0  0  0  0
  -26.1474    9.0490    0.0989 N   0  0  0  0  0  0  0  0  0  0  0  0
  -16.7493    7.8989   -0.7872 N   0  0  0  0  0  0  0  0  0  0  0  0
  -16.6024    6.9193    0.0894 N   0  0  0  0  0  0  0  0  0  0  0  0
  -15.3466    6.8534    0.5075 N   0  0  0  0  0  0  0  0  0  0  0  0
  -23.2033   10.3415   -2.4839 O   0  0  0  0  0  0  0  0  0  0  0  0
  -26.3523   10.3545   -2.0678 O   0  0  0  0  0  0  0  0  0  0  0  0
  -24.4426   10.4992   -5.4280 O   0  0  0  0  0  0  0  0  0  0  0  0
  -23.2304    8.5939    0.6258 O   0  0  0  0  0  0  0  0  0  0  0  0
  -17.6664   10.4567   -0.6243 O   0  0  0  0  0  0  0  0  0  0  0  0
  -21.2557   10.3616   -0.7604 S   0  0  0  0  0  0  0  0  0  0  0  0
  1  2  2  0
  5  1  1  0
  1 14  1  0
  2 15  1  0
  4  3  1  0
 15  3  2  0
 14  4  2  0
  4 26  1  0
  6  5  2  0
  5 28  1  0
 30  6  1  0
  8  7  1  0
 16  7  1  0
  7 35  1  1
  9  8  1  0
  8 30  1  1
 17  9  1  0
  9 37  1  1
 19 10  1  0
 10 39  1  0
 21 11  1  0
 11 23  1  0
 11 25  2  0
 23 12  2  0
 12 24  1  0
 12 27  1  0
 13 24  2  0
 25 13  1  0
 16 18  1  1
 34 16  1  0
 17 34  1  0
 17 39  1  1
 18 36  1  0
 20 19  1  0
 19 38  1  6
 31 20  1  0
 22 21  2  0
 21 33  1  0
 22 31  1  0
 28 29  2  0
 29 30  1  0
 31 32  1  0
 32 33  2  0
M  END
$$$$
