
     RDKit          3D

 39 43  0  0  0  0  0  0  0  0999 V2000
  -12.9991    8.4208   -0.4276 C   0  0  0  0  0  0  0  0  0  0  0  0
  -12.2361    8.4495   -1.5582 C   0  0  0  0  0  0  0  0  0  0  0  0
  -10.3319    7.6957   -0.3210 C   0  0  0  0  0  0  0  0  0  0  0  0
  -11.0766    7.6519    0.8587 C   0  0  0  0  0  0  0  0  0  0  0  0
  -14.4122    8.7957   -0.4365 C   0  0  0  0  0  0  0  0  0  0  0  0
  -15.4488    8.0544   -0.9660 C   0  0  0  0  0  0  0  0  0  0  0  0
  -18.2751    6.9242   -0.5264 C   0  0  2  0  0  0  0  0  0  0  0  0
  -17.9095    8.1645   -1.2503 C   0  0  1  0  0  0  0  0  0  0  0  0
  -18.9557    9.2283   -1.2616 C   0  0  2  0  0  0  0  0  0  0  0  0
  -23.0037    9.5417   -2.3880 C   0  0  0  0  0  0  0  0  0  0  0  0
  -27.5485    8.7886    2.9365 C   0  0  0  0  0  0  0  0  0  0  0  0
  -29.3696    8.3042    4.4636 C   0  0  0  0  0  0  0  0  0  0  0  0
  -27.2343    7.3831    4.8640 C   0  0  0  0  0  0  0  0  0  0  0  0
  -12.3966    8.0229    0.7458 C   0  0  0  0  0  0  0  0  0  0  0  0
  -10.8899    8.0855   -1.5137 C   0  0  0  0  0  0  0  0  0  0  0  0
  -19.7124    6.6142   -0.3545 C   0  0  1  0  0  0  0  0  0  0  0  0
  -20.3217    8.6049   -1.3553 C   0  0  1  0  0  0  0  0  0  0  0  0
  -19.9817    5.7497    0.8764 C   0  0  0  0  0  0  0  0  0  0  0  0
  -24.2770    9.2581   -1.6347 C   0  0  1  0  0  0  0  0  0  0  0  0
  -24.5698   10.4532   -0.7575 C   0  0  0  0  0  0  0  0  0  0  0  0
  -27.0285    9.4443    1.7319 C   0  0  0  0  0  0  0  0  0  0  0  0
  -25.7642    9.4618    1.2250 C   0  0  0  0  0  0  0  0  0  0  0  0
  -28.8629    8.9264    3.3218 C   0  0  0  0  0  0  0  0  0  0  0  0
  -28.5484    7.5210    5.2487 C   0  0  0  0  0  0  0  0  0  0  0  0
  -26.7295    8.0067    3.7207 C   0  0  0  0  0  0  0  0  0  0  0  0
  -10.5473    7.2707    2.0386 F   0  0  0  0  0  0  0  0  0  0  0  0
  -30.6799    8.4669    4.8081 F   0  0  0  0  0  0  0  0  0  0  0  0
  -15.0117    9.8964    0.0505 N   0  0  0  0  0  0  0  0  0  0  0  0
  -16.3358    9.8172   -0.1759 N   0  0  0  0  0  0  0  0  0  0  0  0
  -16.6127    8.6956   -0.7964 N   0  0  0  0  0  0  0  0  0  0  0  0
  -25.7390   10.1887    0.0950 N   0  0  0  0  0  0  0  0  0  0  0  0
  -26.9778   10.6136   -0.0899 N   0  0  0  0  0  0  0  0  0  0  0  0
  -27.7688   10.1787    0.8805 N   0  0  0  0  0  0  0  0  0  0  0  0
  -20.5899    7.6774   -0.4038 O   0  0  0  0  0  0  0  0  0  0  0  0
  -17.7104    7.0260    0.7683 O   0  0  0  0  0  0  0  0  0  0  0  0
  -21.1082    4.9769    0.7711 O   0  0  0  0  0  0  0  0  0  0  0  0
  -18.7760   10.0031   -2.4102 O   0  0  0  0  0  0  0  0  0  0  0  0
  -25.3410    9.0517   -2.4747 O   0  0  0  0  0  0  0  0  0  0  0  0
  -21.5782    9.8795   -1.3722 S   0  0  0  0  0  0  0  0  0  0  0  0
  1  2  2  0
  5  1  1  0
  1 14  1  0
  2 15  1  0
  4  3  1  0
 15  3  2  0
 14  4  2  0
  4 26  1  0
  6  5  2  0
  5 28  1  0
 30  6  1  0
  8  7  1  0
 16  7  1  0
  7 35  1  1
  9  8  1  0
  8 30  1  1
 17  9  1  0
  9 37  1  6
 19 10  1  0
 10 39  1  0
 21 11  1  0
 11 23  1  0
 11 25  2  0
 23 12  2  0
 12 24  1  0
 12 27  1  0
 13 24  2  0
 25 13  1  0
 16 18  1  1
 34 16  1  0
 17 34  1  0
 17 39  1  1
 18 36  1  0
 20 19  1  0
 19 38  1  6
 31 20  1  0
 22 21  2  0
 21 33  1  0
 22 31  1  0
 28 29  2  0
 29 30  1  0
 31 32  1  0
 32 33  2  0
M  END
$$$$
