
     RDKit          3D

 23 24  0  0  0  0  0  0  0  0999 V2000
   -5.5826  -34.5724  -16.2019 C   0  0  2  0  0  0  0  0  0  0  0  0
   -6.8897  -34.7574  -16.9986 C   0  0  1  0  0  0  0  0  0  0  0  0
   -6.9111  -36.0807  -17.6959 C   0  0  2  0  0  0  0  0  0  0  0  0
   -6.2734  -37.1965  -16.9742 C   0  0  1  0  0  0  0  0  0  0  0  0
   -5.4156  -36.8429  -15.8127 C   0  0  1  0  0  0  0  0  0  0  0  0
   -3.9255  -37.0022  -16.1452 C   0  0  0  0  0  0  0  0  0  0  0  0
   -7.9138  -34.7163  -16.0533 O   0  0  0  0  0  0  0  0  0  0  0  0
   -6.3209  -35.8754  -18.9655 O   0  0  0  0  0  0  0  0  0  0  0  0
   -7.2647  -38.1243  -16.6047 O   0  0  0  0  0  0  0  0  0  0  0  0
   -5.6034  -35.6049  -15.2811 O   0  0  0  0  0  0  0  0  0  0  0  0
   -3.2111  -36.5622  -15.0063 O   0  0  0  0  0  0  0  0  0  0  0  0
   -5.4663  -30.2578  -12.5696 O   0  0  0  0  0  0  0  0  0  0  0  0
   -5.9684  -28.6507  -14.2825 C   0  0  0  0  0  0  0  0  0  0  0  0
   -6.9467  -27.7491  -13.8116 O   0  0  0  0  0  0  0  0  0  0  0  0
   -6.3002  -29.9882  -13.6532 C   0  0  1  0  0  0  0  0  0  0  0  0
   -6.1342  -31.0344  -14.5611 O   0  0  0  0  0  0  0  0  0  0  0  0
   -7.7555  -30.0528  -13.2419 C   0  0  1  0  0  0  0  0  0  0  0  0
   -8.5492  -29.1877  -13.9924 O   0  0  0  0  0  0  0  0  0  0  0  0
   -8.1307  -31.4761  -13.6755 C   0  0  2  0  0  0  0  0  0  0  0  0
   -8.8640  -32.1193  -12.7132 O   0  0  0  0  0  0  0  0  0  0  0  0
   -6.7296  -32.0918  -13.8258 C   0  0  1  0  0  0  0  0  0  0  0  0
   -6.7811  -33.3504  -14.6133 C   0  0  0  0  0  0  0  0  0  0  0  0
   -5.7534  -33.3785  -15.5240 O   0  0  0  0  0  0  0  0  0  0  0  0
  1  2  1  0
  1 10  1  0
  1 23  1  1
  2  3  1  0
  2  7  1  1
  3  4  1  0
  3  8  1  6
  5  4  1  0
  4  9  1  1
  5  6  1  6
 10  5  1  0
  6 11  1  0
 15 12  1  1
 13 14  1  0
 15 13  1  0
 16 15  1  0
 17 15  1  0
 21 16  1  0
 17 18  1  6
 19 17  1  0
 19 20  1  1
 21 19  1  0
 21 22  1  6
 22 23  1  0
M  END
$$$$
