
     RDKit          3D

 23 24  0  0  0  0  0  0  0  0999 V2000
   -7.0612  -34.1723  -14.8945 C   0  0  2  0  0  0  0  0  0  0  0  0
   -7.2786  -33.1228  -13.7859 C   0  0  1  0  0  0  0  0  0  0  0  0
   -6.5442  -33.4995  -12.5382 C   0  0  2  0  0  0  0  0  0  0  0  0
   -5.2453  -34.1677  -12.7353 C   0  0  1  0  0  0  0  0  0  0  0  0
   -4.9518  -34.6770  -14.1007 C   0  0  1  0  0  0  0  0  0  0  0  0
   -5.0649  -36.2065  -14.1665 C   0  0  0  0  0  0  0  0  0  0  0  0
   -6.7553  -31.9324  -14.2888 O   0  0  0  0  0  0  0  0  0  0  0  0
   -7.4305  -34.2964  -11.7755 O   0  0  0  0  0  0  0  0  0  0  0  0
   -4.2218  -33.3132  -12.2852 O   0  0  0  0  0  0  0  0  0  0  0  0
   -5.6948  -34.1511  -15.1114 O   0  0  0  0  0  0  0  0  0  0  0  0
   -4.2265  -36.6255  -15.2261 O   0  0  0  0  0  0  0  0  0  0  0  0
   -7.1551  -31.1653  -19.3856 O   0  0  0  0  0  0  0  0  0  0  0  0
   -4.8043  -31.4884  -19.7573 C   0  0  0  0  0  0  0  0  0  0  0  0
   -3.8725  -32.1495  -18.9288 O   0  0  0  0  0  0  0  0  0  0  0  0
   -6.1469  -32.1245  -19.4610 C   0  0  1  0  0  0  0  0  0  0  0  0
   -6.1348  -32.7951  -18.2376 O   0  0  0  0  0  0  0  0  0  0  0  0
   -6.4877  -33.1847  -20.4863 C   0  0  1  0  0  0  0  0  0  0  0  0
   -5.3478  -33.7206  -21.0820 O   0  0  0  0  0  0  0  0  0  0  0  0
   -7.0759  -34.2886  -19.5976 C   0  0  2  0  0  0  0  0  0  0  0  0
   -8.2183  -34.8165  -20.1393 O   0  0  0  0  0  0  0  0  0  0  0  0
   -7.3740  -33.4808  -18.3235 C   0  0  1  0  0  0  0  0  0  0  0  0
   -7.5890  -34.3789  -17.1599 C   0  0  0  0  0  0  0  0  0  0  0  0
   -7.6887  -33.6398  -16.0066 O   0  0  0  0  0  0  0  0  0  0  0  0
  1  2  1  0
  1 10  1  0
  1 23  1  6
  2  3  1  0
  2  7  1  6
  3  4  1  0
  3  8  1  1
  5  4  1  0
  4  9  1  6
  5  6  1  1
 10  5  1  0
  6 11  1  0
 15 12  1  1
 13 14  1  0
 15 13  1  0
 16 15  1  0
 17 15  1  0
 21 16  1  0
 17 18  1  1
 19 17  1  0
 19 20  1  6
 21 19  1  0
 21 22  1  1
 22 23  1  0
M  END
$$$$
