
     RDKit          3D

 23 24  0  0  0  0  0  0  0  0999 V2000
   -6.5426  -34.1076  -16.7179 C   0  0  2  0  0  0  0  0  0  0  0  0
   -7.7394  -34.9825  -17.1420 C   0  0  1  0  0  0  0  0  0  0  0  0
   -7.3144  -36.0416  -18.1092 C   0  0  2  0  0  0  0  0  0  0  0  0
   -5.9723  -36.6099  -17.8895 C   0  0  1  0  0  0  0  0  0  0  0  0
   -5.0746  -35.8739  -16.9608 C   0  0  1  0  0  0  0  0  0  0  0  0
   -3.9713  -35.1249  -17.7211 C   0  0  0  0  0  0  0  0  0  0  0  0
   -8.1980  -35.5835  -15.9704 O   0  0  0  0  0  0  0  0  0  0  0  0
   -7.4373  -35.4782  -19.4014 O   0  0  0  0  0  0  0  0  0  0  0  0
   -6.1067  -37.9554  -17.5001 O   0  0  0  0  0  0  0  0  0  0  0  0
   -5.6756  -34.9986  -16.1107 O   0  0  0  0  0  0  0  0  0  0  0  0
   -2.9876  -34.7807  -16.7645 O   0  0  0  0  0  0  0  0  0  0  0  0
   -8.2111  -30.7821  -12.5098 O   0  0  0  0  0  0  0  0  0  0  0  0
   -5.9762  -30.1106  -11.9410 C   0  0  0  0  0  0  0  0  0  0  0  0
   -5.6900  -31.3907  -11.4204 O   0  0  0  0  0  0  0  0  0  0  0  0
   -7.0025  -30.3275  -13.0341 C   0  0  1  0  0  0  0  0  0  0  0  0
   -6.5743  -31.2863  -13.9527 O   0  0  0  0  0  0  0  0  0  0  0  0
   -7.2084  -29.0683  -13.8484 C   0  0  1  0  0  0  0  0  0  0  0  0
   -6.0926  -28.2344  -13.8117 O   0  0  0  0  0  0  0  0  0  0  0  0
   -7.2824  -29.6359  -15.2720 C   0  0  2  0  0  0  0  0  0  0  0  0
   -8.3054  -29.0710  -15.9873 O   0  0  0  0  0  0  0  0  0  0  0  0
   -7.5594  -31.1159  -14.9595 C   0  0  1  0  0  0  0  0  0  0  0  0
   -7.2909  -31.9711  -16.1442 C   0  0  0  0  0  0  0  0  0  0  0  0
   -7.0537  -33.2644  -15.7473 O   0  0  0  0  0  0  0  0  0  0  0  0
  1  2  1  0
  1 10  1  0
  1 23  1  1
  2  3  1  0
  2  7  1  1
  3  4  1  0
  3  8  1  6
  5  4  1  0
  4  9  1  1
  5  6  1  6
 10  5  1  0
  6 11  1  0
 15 12  1  1
 13 14  1  0
 15 13  1  0
 16 15  1  0
 17 15  1  0
 21 16  1  0
 17 18  1  6
 19 17  1  0
 19 20  1  6
 21 19  1  0
 21 22  1  6
 22 23  1  0
M  END
$$$$
