
     RDKit          3D

 23 24  0  0  0  0  0  0  0  0999 V2000
   -5.1904  -35.0134  -15.3306 C   0  0  2  0  0  0  0  0  0  0  0  0
   -4.8078  -34.6628  -16.7825 C   0  0  1  0  0  0  0  0  0  0  0  0
   -4.9846  -35.8431  -17.6846 C   0  0  2  0  0  0  0  0  0  0  0  0
   -6.1216  -36.7265  -17.3696 C   0  0  1  0  0  0  0  0  0  0  0  0
   -6.7641  -36.5474  -16.0410 C   0  0  1  0  0  0  0  0  0  0  0  0
   -6.3944  -37.6856  -15.0798 C   0  0  0  0  0  0  0  0  0  0  0  0
   -5.6862  -33.6508  -17.1677 O   0  0  0  0  0  0  0  0  0  0  0  0
   -3.7572  -36.5471  -17.6702 O   0  0  0  0  0  0  0  0  0  0  0  0
   -7.0700  -36.6331  -18.4049 O   0  0  0  0  0  0  0  0  0  0  0  0
   -6.5261  -35.3648  -15.4124 O   0  0  0  0  0  0  0  0  0  0  0  0
   -7.4488  -37.7763  -14.1410 O   0  0  0  0  0  0  0  0  0  0  0  0
   -5.6030  -29.6227  -14.5604 O   0  0  0  0  0  0  0  0  0  0  0  0
   -7.6369  -29.3042  -15.7976 C   0  0  0  0  0  0  0  0  0  0  0  0
   -8.1384  -30.2556  -16.7115 O   0  0  0  0  0  0  0  0  0  0  0  0
   -6.9017  -30.0965  -14.7361 C   0  0  1  0  0  0  0  0  0  0  0  0
   -6.7968  -31.4431  -15.0859 O   0  0  0  0  0  0  0  0  0  0  0  0
   -7.6595  -30.0894  -13.4258 C   0  0  1  0  0  0  0  0  0  0  0  0
   -9.0248  -29.8830  -13.6132 O   0  0  0  0  0  0  0  0  0  0  0  0
   -7.4965  -31.5462  -12.9727 C   0  0  2  0  0  0  0  0  0  0  0  0
   -7.1813  -31.6278  -11.6418 O   0  0  0  0  0  0  0  0  0  0  0  0
   -6.3174  -31.9761  -13.8614 C   0  0  1  0  0  0  0  0  0  0  0  0
   -6.1994  -33.4561  -13.9128 C   0  0  0  0  0  0  0  0  0  0  0  0
   -5.0947  -33.8151  -14.6457 O   0  0  0  0  0  0  0  0  0  0  0  0
  1  2  1  0
  1 10  1  0
  1 23  1  1
  2  3  1  0
  2  7  1  6
  3  4  1  0
  3  8  1  1
  5  4  1  0
  4  9  1  6
  5  6  1  1
 10  5  1  0
  6 11  1  0
 15 12  1  1
 13 14  1  0
 15 13  1  0
 16 15  1  0
 17 15  1  0
 21 16  1  0
 17 18  1  6
 19 17  1  0
 19 20  1  1
 21 19  1  0
 21 22  1  6
 22 23  1  0
M  END
$$$$
