
     RDKit          3D

 23 24  0  0  0  0  0  0  0  0999 V2000
   -7.5464  -34.1378  -14.8215 C   0  0  2  0  0  0  0  0  0  0  0  0
   -7.4894  -32.8056  -14.0471 C   0  0  1  0  0  0  0  0  0  0  0  0
   -6.5556  -32.9010  -12.8822 C   0  0  2  0  0  0  0  0  0  0  0  0
   -5.3582  -33.7359  -13.0865 C   0  0  1  0  0  0  0  0  0  0  0  0
   -5.3579  -34.6317  -14.2728 C   0  0  1  0  0  0  0  0  0  0  0  0
   -5.5698  -36.0978  -13.8703 C   0  0  0  0  0  0  0  0  0  0  0  0
   -7.0024  -31.8653  -14.9541 O   0  0  0  0  0  0  0  0  0  0  0  0
   -7.3265  -33.3540  -11.7854 O   0  0  0  0  0  0  0  0  0  0  0  0
   -4.2204  -32.9080  -13.0797 O   0  0  0  0  0  0  0  0  0  0  0  0
   -6.2467  -34.3274  -15.2565 O   0  0  0  0  0  0  0  0  0  0  0  0
   -4.8013  -36.8754  -14.7681 O   0  0  0  0  0  0  0  0  0  0  0  0
   -7.2790  -31.4327  -19.2231 O   0  0  0  0  0  0  0  0  0  0  0  0
   -5.1128  -32.1998  -19.9217 C   0  0  0  0  0  0  0  0  0  0  0  0
   -4.2671  -32.4344  -18.8165 O   0  0  0  0  0  0  0  0  0  0  0  0
   -6.5082  -32.5690  -19.4616 C   0  0  1  0  0  0  0  0  0  0  0  0
   -6.4773  -33.2939  -18.2700 O   0  0  0  0  0  0  0  0  0  0  0  0
   -7.1889  -33.4820  -20.4588 C   0  0  1  0  0  0  0  0  0  0  0  0
   -6.2700  -34.2025  -21.2192 O   0  0  0  0  0  0  0  0  0  0  0  0
   -7.8726  -34.4922  -19.5280 C   0  0  2  0  0  0  0  0  0  0  0  0
   -9.1592  -34.7502  -19.9222 O   0  0  0  0  0  0  0  0  0  0  0  0
   -7.8316  -33.7115  -18.2038 C   0  0  1  0  0  0  0  0  0  0  0  0
   -8.0757  -34.6102  -17.0463 C   0  0  0  0  0  0  0  0  0  0  0  0
   -8.3408  -33.8679  -15.9216 O   0  0  0  0  0  0  0  0  0  0  0  0
  1  2  1  0
  1 10  1  0
  1 23  1  6
  2  3  1  0
  2  7  1  6
  3  4  1  0
  3  8  1  1
  5  4  1  0
  4  9  1  6
  5  6  1  1
 10  5  1  0
  6 11  1  0
 15 12  1  1
 13 14  1  0
 15 13  1  0
 16 15  1  0
 17 15  1  0
 21 16  1  0
 17 18  1  6
 19 17  1  0
 19 20  1  6
 21 19  1  0
 21 22  1  1
 22 23  1  0
M  END
$$$$
