
     RDKit          3D

 23 24  0  0  0  0  0  0  0  0999 V2000
   -7.7858  -33.1946  -17.6339 C   0  0  2  0  0  0  0  0  0  0  0  0
   -8.4553  -34.5527  -17.9253 C   0  0  1  0  0  0  0  0  0  0  0  0
   -7.8613  -35.1950  -19.1388 C   0  0  2  0  0  0  0  0  0  0  0  0
   -6.4167  -34.9795  -19.3365 C   0  0  1  0  0  0  0  0  0  0  0  0
   -5.7779  -33.9147  -18.5193 C   0  0  1  0  0  0  0  0  0  0  0  0
   -5.4641  -32.6710  -19.3626 C   0  0  0  0  0  0  0  0  0  0  0  0
   -8.1956  -35.3459  -16.8084 O   0  0  0  0  0  0  0  0  0  0  0  0
   -8.6137  -34.7353  -20.2455 O   0  0  0  0  0  0  0  0  0  0  0  0
   -5.7481  -36.2073  -19.1764 O   0  0  0  0  0  0  0  0  0  0  0  0
   -6.4589  -33.5170  -17.4110 O   0  0  0  0  0  0  0  0  0  0  0  0
   -4.4274  -31.9818  -18.6907 O   0  0  0  0  0  0  0  0  0  0  0  0
   -7.3817  -34.6415  -12.7662 O   0  0  0  0  0  0  0  0  0  0  0  0
   -5.0027  -34.9426  -12.9015 C   0  0  0  0  0  0  0  0  0  0  0  0
   -4.1517  -34.7498  -14.0107 O   0  0  0  0  0  0  0  0  0  0  0  0
   -6.1852  -34.0215  -13.1212 C   0  0  1  0  0  0  0  0  0  0  0  0
   -6.3029  -33.6535  -14.4619 O   0  0  0  0  0  0  0  0  0  0  0  0
   -6.0102  -32.7187  -12.3706 C   0  0  1  0  0  0  0  0  0  0  0  0
   -4.6676  -32.4238  -12.1424 O   0  0  0  0  0  0  0  0  0  0  0  0
   -6.5105  -31.7024  -13.4055 C   0  0  2  0  0  0  0  0  0  0  0  0
   -7.3321  -30.7656  -12.8356 O   0  0  0  0  0  0  0  0  0  0  0  0
   -7.2858  -32.6364  -14.3497 C   0  0  1  0  0  0  0  0  0  0  0  0
   -7.5490  -31.9775  -15.6550 C   0  0  0  0  0  0  0  0  0  0  0  0
   -8.3424  -32.7812  -16.4366 O   0  0  0  0  0  0  0  0  0  0  0  0
  1  2  1  0
  1 10  1  0
  1 23  1  1
  2  3  1  0
  2  7  1  1
  3  4  1  0
  3  8  1  6
  5  4  1  0
  4  9  1  1
  5  6  1  6
 10  5  1  0
  6 11  1  0
 15 12  1  1
 13 14  1  0
 15 13  1  0
 16 15  1  0
 17 15  1  0
 21 16  1  0
 17 18  1  6
 19 17  1  0
 19 20  1  1
 21 19  1  0
 21 22  1  6
 22 23  1  0
M  END
$$$$
