
     RDKit          3D

 23 24  0  0  0  0  0  0  0  0999 V2000
   -6.5432  -31.0119  -15.4222 C   0  0  2  0  0  0  0  0  0  0  0  0
   -6.1556  -31.1912  -13.9406 C   0  0  1  0  0  0  0  0  0  0  0  0
   -6.7407  -30.1032  -13.0968 C   0  0  2  0  0  0  0  0  0  0  0  0
   -8.0749  -29.6249  -13.5014 C   0  0  1  0  0  0  0  0  0  0  0  0
   -8.5524  -30.0267  -14.8506 C   0  0  1  0  0  0  0  0  0  0  0  0
   -8.4977  -28.8533  -15.8388 C   0  0  0  0  0  0  0  0  0  0  0  0
   -6.6988  -32.4166  -13.5567 O   0  0  0  0  0  0  0  0  0  0  0  0
   -5.7925  -29.0530  -13.0814 O   0  0  0  0  0  0  0  0  0  0  0  0
   -9.0062  -29.9837  -12.5095 O   0  0  0  0  0  0  0  0  0  0  0  0
   -7.9245  -31.0914  -15.4184 O   0  0  0  0  0  0  0  0  0  0  0  0
   -9.7766  -28.7737  -16.4382 O   0  0  0  0  0  0  0  0  0  0  0  0
   -4.4844  -35.9064  -17.1940 O   0  0  0  0  0  0  0  0  0  0  0  0
   -5.3146  -37.1103  -15.2887 C   0  0  0  0  0  0  0  0  0  0  0  0
   -6.0771  -36.6920  -14.1772 O   0  0  0  0  0  0  0  0  0  0  0  0
   -5.6040  -36.1109  -16.3897 C   0  0  1  0  0  0  0  0  0  0  0  0
   -5.9599  -34.8666  -15.8686 O   0  0  0  0  0  0  0  0  0  0  0  0
   -6.7929  -36.5427  -17.2212 C   0  0  1  0  0  0  0  0  0  0  0  0
   -7.6548  -37.3736  -16.5082 O   0  0  0  0  0  0  0  0  0  0  0  0
   -7.5297  -35.2105  -17.4123 C   0  0  2  0  0  0  0  0  0  0  0  0
   -7.9492  -35.0476  -18.7065 O   0  0  0  0  0  0  0  0  0  0  0  0
   -6.4053  -34.2249  -17.0530 C   0  0  1  0  0  0  0  0  0  0  0  0
   -6.9504  -32.8711  -16.7752 C   0  0  0  0  0  0  0  0  0  0  0  0
   -6.0421  -32.1371  -16.0523 O   0  0  0  0  0  0  0  0  0  0  0  0
  1  2  1  0
  1 10  1  0
  1 23  1  6
  2  3  1  0
  2  7  1  1
  3  4  1  0
  3  8  1  6
  5  4  1  0
  4  9  1  1
  5  6  1  6
 10  5  1  0
  6 11  1  0
 15 12  1  6
 13 14  1  0
 15 13  1  0
 16 15  1  0
 17 15  1  0
 21 16  1  0
 17 18  1  1
 19 17  1  0
 19 20  1  6
 21 19  1  0
 21 22  1  1
 22 23  1  0
M  END
$$$$
