
     RDKit          3D

 23 24  0  0  0  0  0  0  0  0999 V2000
   -7.7142  -33.9745  -15.5934 C   0  0  2  0  0  0  0  0  0  0  0  0
   -7.3362  -35.1325  -14.6480 C   0  0  1  0  0  0  0  0  0  0  0  0
   -6.7721  -36.2879  -15.4127 C   0  0  2  0  0  0  0  0  0  0  0  0
   -5.9520  -35.9408  -16.5872 C   0  0  1  0  0  0  0  0  0  0  0  0
   -6.0304  -34.5373  -17.0707 C   0  0  1  0  0  0  0  0  0  0  0  0
   -6.8469  -34.4339  -18.3664 C   0  0  0  0  0  0  0  0  0  0  0  0
   -6.3574  -34.6184  -13.7984 O   0  0  0  0  0  0  0  0  0  0  0  0
   -7.8688  -37.1092  -15.7665 O   0  0  0  0  0  0  0  0  0  0  0  0
   -4.6185  -36.3138  -16.3365 O   0  0  0  0  0  0  0  0  0  0  0  0
   -6.5152  -33.6232  -16.1877 O   0  0  0  0  0  0  0  0  0  0  0  0
   -5.9194  -34.5069  -19.4320 O   0  0  0  0  0  0  0  0  0  0  0  0
   -6.7765  -29.8931  -12.1444 O   0  0  0  0  0  0  0  0  0  0  0  0
   -4.8962  -28.9269  -13.2844 C   0  0  0  0  0  0  0  0  0  0  0  0
   -4.0788  -29.9158  -13.8723 O   0  0  0  0  0  0  0  0  0  0  0  0
   -6.3147  -29.4496  -13.3822 C   0  0  1  0  0  0  0  0  0  0  0  0
   -6.3999  -30.5330  -14.2572 O   0  0  0  0  0  0  0  0  0  0  0  0
   -7.2439  -28.4040  -13.9607 C   0  0  1  0  0  0  0  0  0  0  0  0
   -6.5644  -27.4853  -14.7581 O   0  0  0  0  0  0  0  0  0  0  0  0
   -8.1034  -29.2520  -14.9074 C   0  0  2  0  0  0  0  0  0  0  0  0
   -9.4323  -28.9355  -14.8014 O   0  0  0  0  0  0  0  0  0  0  0  0
   -7.8099  -30.6568  -14.3549 C   0  0  1  0  0  0  0  0  0  0  0  0
   -8.2052  -31.7069  -15.3286 C   0  0  0  0  0  0  0  0  0  0  0  0
   -8.1016  -32.9483  -14.7502 O   0  0  0  0  0  0  0  0  0  0  0  0
  1  2  1  0
  1 10  1  0
  1 23  1  1
  2  3  1  0
  2  7  1  1
  3  4  1  0
  3  8  1  6
  5  4  1  0
  4  9  1  1
  5  6  1  6
 10  5  1  0
  6 11  1  0
 15 12  1  1
 13 14  1  0
 15 13  1  0
 16 15  1  0
 17 15  1  0
 21 16  1  0
 17 18  1  6
 19 17  1  0
 19 20  1  1
 21 19  1  0
 21 22  1  6
 22 23  1  0
M  END
$$$$
