
     RDKit          3D

 23 24  0  0  0  0  0  0  0  0999 V2000
   -5.7267  -34.1347  -16.3700 C   0  0  2  0  0  0  0  0  0  0  0  0
   -6.7196  -34.2158  -17.5469 C   0  0  1  0  0  0  0  0  0  0  0  0
   -6.7427  -35.5906  -18.1364 C   0  0  2  0  0  0  0  0  0  0  0  0
   -6.5726  -36.7008  -17.1819 C   0  0  1  0  0  0  0  0  0  0  0  0
   -6.0864  -36.3493  -15.8218 C   0  0  1  0  0  0  0  0  0  0  0  0
   -4.6193  -36.7565  -15.6266 C   0  0  0  0  0  0  0  0  0  0  0  0
   -7.9701  -33.9250  -17.0030 O   0  0  0  0  0  0  0  0  0  0  0  0
   -5.7498  -35.6122  -19.1442 O   0  0  0  0  0  0  0  0  0  0  0  0
   -7.7739  -37.4305  -17.1148 O   0  0  0  0  0  0  0  0  0  0  0  0
   -6.2194  -35.0467  -15.4535 O   0  0  0  0  0  0  0  0  0  0  0  0
   -4.5310  -37.3330  -14.3378 O   0  0  0  0  0  0  0  0  0  0  0  0
   -6.1364  -28.8629  -13.9300 O   0  0  0  0  0  0  0  0  0  0  0  0
   -8.1709  -28.7142  -15.1980 C   0  0  0  0  0  0  0  0  0  0  0  0
   -8.3768  -29.4247  -16.3998 O   0  0  0  0  0  0  0  0  0  0  0  0
   -7.2534  -29.5783  -14.3575 C   0  0  1  0  0  0  0  0  0  0  0  0
   -6.7795  -30.6731  -15.0810 O   0  0  0  0  0  0  0  0  0  0  0  0
   -7.9928  -30.1765  -13.1800 C   0  0  1  0  0  0  0  0  0  0  0  0
   -9.3609  -30.2838  -13.4223 O   0  0  0  0  0  0  0  0  0  0  0  0
   -7.4382  -31.6071  -13.1681 C   0  0  2  0  0  0  0  0  0  0  0  0
   -7.1218  -32.0145  -11.8987 O   0  0  0  0  0  0  0  0  0  0  0  0
   -6.1803  -31.4173  -14.0320 C   0  0  1  0  0  0  0  0  0  0  0  0
   -5.6591  -32.7235  -14.5106 C   0  0  0  0  0  0  0  0  0  0  0  0
   -5.8986  -32.8618  -15.8559 O   0  0  0  0  0  0  0  0  0  0  0  0
  1  2  1  0
  1 10  1  0
  1 23  1  1
  2  3  1  0
  2  7  1  1
  3  4  1  0
  3  8  1  6
  5  4  1  0
  4  9  1  1
  5  6  1  6
 10  5  1  0
  6 11  1  0
 15 12  1  1
 13 14  1  0
 15 13  1  0
 16 15  1  0
 17 15  1  0
 21 16  1  0
 17 18  1  6
 19 17  1  0
 19 20  1  1
 21 19  1  0
 21 22  1  6
 22 23  1  0
M  END
$$$$
