
     RDKit          3D

 23 24  0  0  0  0  0  0  0  0999 V2000
   -8.0316  -32.2894  -15.1025 C   0  0  2  0  0  0  0  0  0  0  0  0
   -7.9830  -30.7691  -14.8496 C   0  0  1  0  0  0  0  0  0  0  0  0
   -7.8111  -30.4720  -13.3936 C   0  0  2  0  0  0  0  0  0  0  0  0
   -6.9631  -31.4149  -12.6423 C   0  0  1  0  0  0  0  0  0  0  0  0
   -6.6381  -32.7038  -13.3079 C   0  0  1  0  0  0  0  0  0  0  0  0
   -7.4286  -33.8681  -12.6948 C   0  0  0  0  0  0  0  0  0  0  0  0
   -6.8692  -30.3080  -15.5502 O   0  0  0  0  0  0  0  0  0  0  0  0
   -9.1124  -30.3890  -12.8441 O   0  0  0  0  0  0  0  0  0  0  0  0
   -5.7924  -30.7483  -12.2357 O   0  0  0  0  0  0  0  0  0  0  0  0
   -6.8020  -32.7417  -14.6577 O   0  0  0  0  0  0  0  0  0  0  0  0
   -6.6803  -35.0406  -12.9523 O   0  0  0  0  0  0  0  0  0  0  0  0
   -5.0480  -32.8634  -19.4081 O   0  0  0  0  0  0  0  0  0  0  0  0
   -3.5735  -34.5369  -18.5169 C   0  0  0  0  0  0  0  0  0  0  0  0
   -3.5158  -34.9362  -17.1645 O   0  0  0  0  0  0  0  0  0  0  0  0
   -5.0024  -34.0953  -18.7581 C   0  0  1  0  0  0  0  0  0  0  0  0
   -5.6994  -33.9455  -17.5588 O   0  0  0  0  0  0  0  0  0  0  0  0
   -5.7746  -35.1418  -19.5326 C   0  0  1  0  0  0  0  0  0  0  0  0
   -5.2420  -36.4179  -19.3601 O   0  0  0  0  0  0  0  0  0  0  0  0
   -7.1225  -35.1288  -18.7998 C   0  0  2  0  0  0  0  0  0  0  0  0
   -8.1740  -35.1405  -19.6783 O   0  0  0  0  0  0  0  0  0  0  0  0
   -7.0165  -33.7842  -18.0611 C   0  0  1  0  0  0  0  0  0  0  0  0
   -8.0171  -33.6958  -16.9667 C   0  0  0  0  0  0  0  0  0  0  0  0
   -8.0706  -32.4126  -16.4800 O   0  0  0  0  0  0  0  0  0  0  0  0
  1  2  1  0
  1 10  1  0
  1 23  1  6
  2  3  1  0
  2  7  1  6
  3  4  1  0
  3  8  1  1
  5  4  1  0
  4  9  1  6
  5  6  1  1
 10  5  1  0
  6 11  1  0
 15 12  1  6
 13 14  1  0
 15 13  1  0
 16 15  1  0
 17 15  1  0
 21 16  1  0
 17 18  1  1
 19 17  1  0
 19 20  1  6
 21 19  1  0
 21 22  1  1
 22 23  1  0
M  END
$$$$
