
     RDKit          3D

 23 24  0  0  0  0  0  0  0  0999 V2000
   -6.1996  -34.1548  -16.4690 C   0  0  2  0  0  0  0  0  0  0  0  0
   -7.0007  -34.4128  -17.7609 C   0  0  1  0  0  0  0  0  0  0  0  0
   -6.6545  -35.7432  -18.3510 C   0  0  2  0  0  0  0  0  0  0  0  0
   -6.3662  -36.8182  -17.3846 C   0  0  1  0  0  0  0  0  0  0  0  0
   -6.1366  -36.4099  -15.9738 C   0  0  1  0  0  0  0  0  0  0  0  0
   -4.6511  -36.4991  -15.5974 C   0  0  0  0  0  0  0  0  0  0  0  0
   -8.3412  -34.4120  -17.3772 O   0  0  0  0  0  0  0  0  0  0  0  0
   -5.5651  -35.5230  -19.2268 O   0  0  0  0  0  0  0  0  0  0  0  0
   -7.3806  -37.7897  -17.4696 O   0  0  0  0  0  0  0  0  0  0  0  0
   -6.5916  -35.1770  -15.6228 O   0  0  0  0  0  0  0  0  0  0  0  0
   -4.5630  -37.4207  -14.5277 O   0  0  0  0  0  0  0  0  0  0  0  0
   -6.6370  -28.7622  -15.3981 O   0  0  0  0  0  0  0  0  0  0  0  0
   -8.9119  -28.6175  -14.6413 C   0  0  0  0  0  0  0  0  0  0  0  0
   -9.8934  -29.5794  -14.3201 O   0  0  0  0  0  0  0  0  0  0  0  0
   -7.5814  -29.3361  -14.5491 C   0  0  1  0  0  0  0  0  0  0  0  0
   -7.6984  -30.6757  -14.9212 O   0  0  0  0  0  0  0  0  0  0  0  0
   -7.0749  -29.3678  -13.1230 C   0  0  1  0  0  0  0  0  0  0  0  0
   -8.1123  -29.2688  -12.1980 O   0  0  0  0  0  0  0  0  0  0  0  0
   -6.5369  -30.8013  -13.0237 C   0  0  2  0  0  0  0  0  0  0  0  0
   -5.3158  -30.8395  -12.4033 O   0  0  0  0  0  0  0  0  0  0  0  0
   -6.4249  -31.1529  -14.5166 C   0  0  1  0  0  0  0  0  0  0  0  0
   -6.2984  -32.6201  -14.7116 C   0  0  0  0  0  0  0  0  0  0  0  0
   -6.7035  -32.9635  -15.9782 O   0  0  0  0  0  0  0  0  0  0  0  0
  1  2  1  0
  1 10  1  0
  1 23  1  1
  2  3  1  0
  2  7  1  1
  3  4  1  0
  3  8  1  6
  5  4  1  0
  4  9  1  1
  5  6  1  6
 10  5  1  0
  6 11  1  0
 15 12  1  6
 13 14  1  0
 15 13  1  0
 16 15  1  0
 17 15  1  0
 21 16  1  0
 17 18  1  1
 19 17  1  0
 19 20  1  6
 21 19  1  0
 21 22  1  1
 22 23  1  0
M  END
$$$$
