
     RDKit          3D

 23 24  0  0  0  0  0  0  0  0999 V2000
   -7.3510  -33.9801  -15.8675 C   0  0  2  0  0  0  0  0  0  0  0  0
   -7.4178  -35.3039  -15.0797 C   0  0  1  0  0  0  0  0  0  0  0  0
   -6.8621  -36.4363  -15.8839 C   0  0  2  0  0  0  0  0  0  0  0  0
   -5.7208  -36.1045  -16.7556 C   0  0  1  0  0  0  0  0  0  0  0  0
   -5.4503  -34.6615  -16.9888 C   0  0  1  0  0  0  0  0  0  0  0  0
   -5.8750  -34.2307  -18.3996 C   0  0  0  0  0  0  0  0  0  0  0  0
   -6.6259  -35.1076  -13.9490 O   0  0  0  0  0  0  0  0  0  0  0  0
   -7.9434  -36.9735  -16.6219 O   0  0  0  0  0  0  0  0  0  0  0  0
   -4.5738  -36.7607  -16.2720 O   0  0  0  0  0  0  0  0  0  0  0  0
   -5.9990  -33.7947  -16.0956 O   0  0  0  0  0  0  0  0  0  0  0  0
   -5.0313  -33.1543  -18.7614 O   0  0  0  0  0  0  0  0  0  0  0  0
   -7.1375  -30.1074  -11.9763 O   0  0  0  0  0  0  0  0  0  0  0  0
   -5.1106  -29.0338  -12.6890 C   0  0  0  0  0  0  0  0  0  0  0  0
   -4.1807  -30.0401  -13.0268 O   0  0  0  0  0  0  0  0  0  0  0  0
   -6.4698  -29.5775  -13.0788 C   0  0  1  0  0  0  0  0  0  0  0  0
   -6.3585  -30.6050  -14.0161 O   0  0  0  0  0  0  0  0  0  0  0  0
   -7.3089  -28.5163  -13.7577 C   0  0  1  0  0  0  0  0  0  0  0  0
   -6.5234  -27.5356  -14.3601 O   0  0  0  0  0  0  0  0  0  0  0  0
   -7.9524  -29.3199  -14.8954 C   0  0  2  0  0  0  0  0  0  0  0  0
   -9.2874  -29.0373  -15.0197 O   0  0  0  0  0  0  0  0  0  0  0  0
   -7.7218  -30.7506  -14.3809 C   0  0  1  0  0  0  0  0  0  0  0  0
   -7.8980  -31.7448  -15.4706 C   0  0  0  0  0  0  0  0  0  0  0  0
   -7.7790  -33.0182  -14.9699 O   0  0  0  0  0  0  0  0  0  0  0  0
  1  2  1  0
  1 10  1  0
  1 23  1  1
  2  3  1  0
  2  7  1  1
  3  4  1  0
  3  8  1  6
  5  4  1  0
  4  9  1  1
  5  6  1  6
 10  5  1  0
  6 11  1  0
 15 12  1  1
 13 14  1  0
 15 13  1  0
 16 15  1  0
 17 15  1  0
 21 16  1  0
 17 18  1  6
 19 17  1  0
 19 20  1  1
 21 19  1  0
 21 22  1  6
 22 23  1  0
M  END
$$$$
