
     RDKit          3D

 23 24  0  0  0  0  0  0  0  0999 V2000
   -7.5061  -33.4681  -14.4752 C   0  0  2  0  0  0  0  0  0  0  0  0
   -7.8928  -32.0305  -14.0735 C   0  0  1  0  0  0  0  0  0  0  0  0
   -6.8086  -31.3879  -13.2676 C   0  0  2  0  0  0  0  0  0  0  0  0
   -5.4299  -31.7479  -13.6444 C   0  0  1  0  0  0  0  0  0  0  0  0
   -5.2630  -32.9215  -14.5415 C   0  0  1  0  0  0  0  0  0  0  0  0
   -4.7287  -34.1413  -13.7780 C   0  0  0  0  0  0  0  0  0  0  0  0
   -8.0512  -31.3361  -15.2721 O   0  0  0  0  0  0  0  0  0  0  0  0
   -7.0772  -31.6981  -11.9133 O   0  0  0  0  0  0  0  0  0  0  0  0
   -4.7930  -30.6118  -14.1770 O   0  0  0  0  0  0  0  0  0  0  0  0
   -6.3649  -33.3057  -15.2405 O   0  0  0  0  0  0  0  0  0  0  0  0
   -4.0502  -34.9424  -14.7261 O   0  0  0  0  0  0  0  0  0  0  0  0
   -8.7883  -33.2551  -19.4784 O   0  0  0  0  0  0  0  0  0  0  0  0
   -6.5975  -33.7969  -20.3006 C   0  0  0  0  0  0  0  0  0  0  0  0
   -5.5923  -33.2679  -19.4630 O   0  0  0  0  0  0  0  0  0  0  0  0
   -7.7442  -34.1735  -19.3850 C   0  0  1  0  0  0  0  0  0  0  0  0
   -7.3438  -34.1958  -18.0487 O   0  0  0  0  0  0  0  0  0  0  0  0
   -8.2341  -35.5768  -19.6713 C   0  0  1  0  0  0  0  0  0  0  0  0
   -7.2428  -36.3686  -20.2476 O   0  0  0  0  0  0  0  0  0  0  0  0
   -8.4541  -36.1171  -18.2522 C   0  0  2  0  0  0  0  0  0  0  0  0
   -9.6397  -36.7962  -18.1496 O   0  0  0  0  0  0  0  0  0  0  0  0
   -8.4867  -34.7982  -17.4621 C   0  0  1  0  0  0  0  0  0  0  0  0
   -8.2972  -35.0414  -16.0089 C   0  0  0  0  0  0  0  0  0  0  0  0
   -8.5322  -33.8866  -15.3036 O   0  0  0  0  0  0  0  0  0  0  0  0
  1  2  1  0
  1 10  1  0
  1 23  1  6
  2  3  1  0
  2  7  1  6
  3  4  1  0
  3  8  1  1
  5  4  1  0
  4  9  1  6
  5  6  1  1
 10  5  1  0
  6 11  1  0
 15 12  1  1
 13 14  1  0
 15 13  1  0
 16 15  1  0
 17 15  1  0
 21 16  1  0
 17 18  1  1
 19 17  1  0
 19 20  1  6
 21 19  1  0
 21 22  1  1
 22 23  1  0
M  END
$$$$
