
     RDKit          3D

 23 24  0  0  0  0  0  0  0  0999 V2000
   -7.5313  -34.3826  -15.1837 C   0  0  2  0  0  0  0  0  0  0  0  0
   -6.5837  -35.2640  -14.3453 C   0  0  1  0  0  0  0  0  0  0  0  0
   -6.0765  -36.4208  -15.1469 C   0  0  2  0  0  0  0  0  0  0  0  0
   -5.8322  -36.1533  -16.5756 C   0  0  1  0  0  0  0  0  0  0  0  0
   -6.4014  -34.8974  -17.1312 C   0  0  1  0  0  0  0  0  0  0  0  0
   -7.6253  -35.1773  -18.0143 C   0  0  0  0  0  0  0  0  0  0  0  0
   -5.5151  -34.4392  -13.9965 O   0  0  0  0  0  0  0  0  0  0  0  0
   -7.0042  -37.4736  -14.9643 O   0  0  0  0  0  0  0  0  0  0  0  0
   -4.4492  -36.2326  -16.8228 O   0  0  0  0  0  0  0  0  0  0  0  0
   -6.7388  -33.9385  -16.2273 O   0  0  0  0  0  0  0  0  0  0  0  0
   -7.6318  -34.1808  -19.0184 O   0  0  0  0  0  0  0  0  0  0  0  0
   -5.8620  -29.6590  -13.4607 O   0  0  0  0  0  0  0  0  0  0  0  0
   -5.2167  -28.7343  -15.5814 C   0  0  0  0  0  0  0  0  0  0  0  0
   -5.0596  -29.5102  -16.7498 O   0  0  0  0  0  0  0  0  0  0  0  0
   -6.2903  -29.4255  -14.7661 C   0  0  1  0  0  0  0  0  0  0  0  0
   -6.6242  -30.6663  -15.3099 O   0  0  0  0  0  0  0  0  0  0  0  0
   -7.5798  -28.6328  -14.7763 C   0  0  1  0  0  0  0  0  0  0  0  0
   -7.6860  -27.8229  -15.9052 O   0  0  0  0  0  0  0  0  0  0  0  0
   -8.6207  -29.7482  -14.9397 C   0  0  2  0  0  0  0  0  0  0  0  0
   -9.6854  -29.5716  -14.0957 O   0  0  0  0  0  0  0  0  0  0  0  0
   -7.7756  -30.9685  -14.5379 C   0  0  1  0  0  0  0  0  0  0  0  0
   -8.4193  -32.2325  -14.9793 C   0  0  0  0  0  0  0  0  0  0  0  0
   -7.8206  -33.3053  -14.3652 O   0  0  0  0  0  0  0  0  0  0  0  0
  1  2  1  0
  1 10  1  0
  1 23  1  1
  2  3  1  0
  2  7  1  6
  3  4  1  0
  3  8  1  6
  5  4  1  0
  4  9  1  1
  5  6  1  1
 10  5  1  0
  6 11  1  0
 15 12  1  1
 13 14  1  0
 15 13  1  0
 16 15  1  0
 17 15  1  0
 21 16  1  0
 17 18  1  6
 19 17  1  0
 19 20  1  1
 21 19  1  0
 21 22  1  6
 22 23  1  0
M  END
$$$$
