
     RDKit          3D

138143  0  0  0  0  0  0  0  0999 V2000
   17.4701  104.3303  -94.1244 C   0  0  0  0  0  0  0  0  0  0  0  0
   17.2724  105.5368  -94.2254 O   0  0  0  0  0  0  0  0  0  0  0  0
   16.4536  103.3248  -94.5963 C   0  0  0  0  0  0  0  0  0  0  0  0
   18.6060  103.7743  -93.5790 N   0  0  0  0  0  0  0  0  0  0  0  0
   19.7848  103.4469  -94.3890 C   0  0  2  0  0  0  0  0  0  0  0  0
   21.0042  102.7981  -93.6538 C   0  0  0  0  0  0  0  0  0  0  0  0
   21.0400  101.5611  -93.5578 O   0  0  0  0  0  0  0  0  0  0  0  0
   20.1798  104.6802  -95.2524 C   0  0  1  0  0  0  0  0  0  0  0  0
   20.5021  105.9305  -94.4299 C   0  0  0  0  0  0  0  0  0  0  0  0
   21.3381  104.3739  -96.2122 C   0  0  0  0  0  0  0  0  0  0  0  0
   22.0721  103.5422  -93.1850 N   0  0  0  0  0  0  0  0  0  0  0  0
   22.8220  103.0640  -92.0086 C   0  0  2  0  0  0  0  0  0  0  0  0
   22.4043  103.5363  -90.6051 C   0  0  0  0  0  0  0  0  0  0  0  0
   21.2793  104.0087  -90.4364 O   0  0  0  0  0  0  0  0  0  0  0  0
   24.2488  103.5535  -92.2737 C   0  0  0  0  0  0  0  0  0  0  0  0
   24.0281  104.8576  -93.0242 C   0  0  0  0  0  0  0  0  0  0  0  0
   22.8452  104.5293  -93.9188 C   0  0  0  0  0  0  0  0  0  0  0  0
   23.2090  103.2608  -89.5349 N   0  0  0  0  0  0  0  0  0  0  0  0
   22.7014  103.3455  -88.1514 C   0  0  2  0  0  0  0  0  0  0  0  0
   23.6348  102.8554  -86.9946 C   0  0  0  0  0  0  0  0  0  0  0  0
   23.4740  101.7676  -86.4382 O   0  0  0  0  0  0  0  0  0  0  0  0
   21.3228  102.6690  -88.0175 C   0  0  0  0  0  0  0  0  0  0  0  0
   21.3298  101.2151  -88.5002 C   0  0  0  0  0  0  0  0  0  0  0  0
   21.9304  100.0580  -87.2214 S   0  0  0  0  0  0  0  0  0  0  0  0
   20.3965   99.8020  -86.3027 C   0  0  0  0  0  0  0  0  0  0  0  0
   24.5307  103.7666  -86.5093 N   0  0  0  0  0  0  0  0  0  0  0  0
   24.6338  104.1589  -85.1005 C   0  0  2  0  0  0  0  0  0  0  0  0
   24.6960  102.8573  -84.2616 C   0  0  0  0  0  0  0  0  0  0  0  0
   23.7031  102.1817  -84.0119 O   0  0  0  0  0  0  0  0  0  0  0  0
   23.4631  105.0173  -84.5965 C   0  0  0  0  0  0  0  0  0  0  0  0
   23.8102  106.4050  -84.0713 C   0  0  0  0  0  0  0  0  0  0  0  0
   25.2845  106.4351  -83.6598 C   0  0  0  0  0  0  0  0  0  0  0  0
   25.5974  107.6524  -82.9282 N   0  0  0  0  0  0  0  0  0  0  0  0
   25.2409  107.9036  -81.6522 C   0  0  0  0  0  0  0  0  0  0  0  0
   24.1287  107.4332  -81.1057 N   0  0  0  0  0  4  0  0  0  0  0  0
   26.0274  108.7020  -80.9284 N   0  0  0  0  0  0  0  0  0  0  0  0
   25.9541  102.5263  -83.8041 N   0  0  0  0  0  0  0  0  0  0  0  0
   26.3155  101.3166  -83.0578 C   0  0  2  0  0  0  0  0  0  0  0  0
   26.7818  101.6607  -81.6084 C   0  0  0  0  0  0  0  0  0  0  0  0
   27.7309  102.4215  -81.3754 O   0  0  0  0  0  0  0  0  0  0  0  0
   27.2849  100.3863  -83.7490 C   0  0  0  0  0  0  0  0  0  0  0  0
   25.9769  101.1714  -80.6071 N   0  0  0  0  0  0  0  0  0  0  0  0
   26.2775  101.3080  -79.1822 C   0  0  2  0  0  0  0  0  0  0  0  0
   27.6897  100.7169  -78.9615 C   0  0  0  0  0  0  0  0  0  0  0  0
   28.1449   99.8295  -79.6890 O   0  0  0  0  0  0  0  0  0  0  0  0
   25.2509  100.5484  -78.3488 C   0  0  0  0  0  0  0  0  0  0  0  0
   25.3362  100.8162  -76.8538 C   0  0  0  0  0  0  0  0  0  0  0  0
   24.1112  101.4984  -76.2720 C   0  0  0  0  0  0  0  0  0  0  0  0
   24.2358  101.5458  -74.8089 N   0  0  0  0  0  0  0  0  0  0  0  0
   23.4414  100.9130  -73.9304 C   0  0  0  0  0  0  0  0  0  0  0  0
   23.2052   99.5938  -73.9935 N   0  0  0  0  0  4  0  0  0  0  0  0
   22.8711  101.6247  -72.9576 N   0  0  0  0  0  0  0  0  0  0  0  0
   28.4314  101.2430  -77.9295 N   0  0  0  0  0  0  0  0  0  0  0  0
   29.5167  100.4799  -77.3247 C   0  0  2  0  0  0  0  0  0  0  0  0
   29.1966  100.3328  -75.8364 C   0  0  0  0  0  0  0  0  0  0  0  0
   28.0450  100.3297  -75.4072 O   0  0  0  0  0  0  0  0  0  0  0  0
   30.8363  101.2210  -77.5216 C   0  0  0  0  0  0  0  0  0  0  0  0
   31.2170  101.4874  -78.9735 C   0  0  0  0  0  0  0  0  0  0  0  0
   32.1018  100.3720  -79.5077 C   0  0  0  0  0  0  0  0  0  0  0  0
   31.7781   99.5837  -80.3919 O   0  0  0  0  0  0  0  0  0  0  0  0
   33.2903  100.2341  -78.8543 N   0  0  0  0  0  0  0  0  0  0  0  0
   30.2972  100.1270  -75.0414 N   0  0  0  0  0  0  0  0  0  0  0  0
   30.3753   99.0468  -74.0497 C   0  0  2  0  0  0  0  0  0  0  0  0
   31.7390   99.2818  -73.3575 C   0  0  0  0  0  0  0  0  0  0  0  0
   32.7593   98.7065  -73.7744 O   0  0  0  0  0  0  0  0  0  0  0  0
   30.2670   97.6819  -74.7474 C   0  0  0  0  0  0  0  0  0  0  0  0
   29.6934   96.5653  -73.8398 C   0  0  1  0  0  0  0  0  0  0  0  0
   30.5942   96.3435  -72.6224 C   0  0  0  0  0  0  0  0  0  0  0  0
   28.2802   96.9014  -73.3848 C   0  0  0  0  0  0  0  0  0  0  0  0
   31.8308  100.1632  -72.2914 N   0  0  0  0  0  0  0  0  0  0  0  0
   33.1042  100.8663  -71.9965 C   0  0  2  0  0  0  0  0  0  0  0  0
   34.2586  100.0818  -71.3417 C   0  0  0  0  0  0  0  0  0  0  0  0
   34.7667  100.4283  -70.2717 O   0  0  0  0  0  0  0  0  0  0  0  0
   32.6911  102.0271  -71.0836 C   0  0  0  0  0  0  0  0  0  0  0  0
   31.2607  102.3034  -71.5190 C   0  0  0  0  0  0  0  0  0  0  0  0
   30.7087  100.9027  -71.7193 C   0  0  0  0  0  0  0  0  0  0  0  0
   34.7958   99.0835  -72.1144 N   0  0  0  0  0  0  0  0  0  0  0  0
   36.2388   98.8909  -72.1990 C   0  0  2  0  0  0  0  0  0  0  0  0
   36.6809   97.9879  -71.0188 C   0  0  0  0  0  0  0  0  0  0  0  0
   36.2006   98.1129  -69.8922 O   0  0  0  0  0  0  0  0  0  0  0  0
   36.9187  100.2397  -72.1265 C   0  0  0  0  0  0  0  0  0  0  0  0
   37.6298   97.0428  -71.3132 N   0  0  0  0  0  0  0  0  0  0  0  0
   37.7319   95.7906  -70.5749 C   0  0  2  0  0  0  0  0  0  0  0  0
   39.1434   95.2066  -70.7578 C   0  0  0  0  0  0  0  0  0  0  0  0
   39.6136   95.0167  -71.8830 O   0  0  0  0  0  0  0  0  0  0  0  0
   36.6389   94.8051  -71.0319 C   0  0  0  0  0  0  0  0  0  0  0  0
   37.1950   93.4903  -71.1654 O   0  0  0  0  0  0  0  0  0  0  0  0
   39.7629   94.7927  -69.6094 N   0  0  0  0  0  0  0  0  0  0  0  0
   41.2051   94.5765  -69.4965 C   0  0  2  0  0  0  0  0  0  0  0  0
   41.4449   93.0709  -69.3142 C   0  0  0  0  0  0  0  0  0  0  0  0
   41.5405   92.5462  -68.2055 O   0  0  0  0  0  0  0  0  0  0  0  0
   41.8143   95.2932  -68.2724 C   0  0  0  0  0  0  0  0  0  0  0  0
   42.8683   94.4873  -67.5507 C   0  0  0  0  0  0  0  0  0  0  0  0
   44.2243   94.6089  -67.8799 C   0  0  0  0  0  0  0  0  0  0  0  0
   42.4987   93.6013  -66.5315 C   0  0  0  0  0  0  0  0  0  0  0  0
   45.1886   93.8579  -67.2080 C   0  0  0  0  0  0  0  0  0  0  0  0
   43.4651   92.8466  -65.8586 C   0  0  0  0  0  0  0  0  0  0  0  0
   44.8088   92.9736  -66.1964 C   0  0  0  0  0  0  0  0  0  0  0  0
   41.5095   92.3754  -70.4901 N   0  0  0  0  0  0  0  0  0  0  0  0
   41.6753   90.9245  -70.6195 C   0  0  2  0  0  0  0  0  0  0  0  0
   40.2810   90.3880  -71.0254 C   0  0  0  0  0  0  0  0  0  0  0  0
   39.2917   91.1311  -70.9696 O   0  0  0  0  0  0  0  0  0  0  0  0
   42.3284   90.2493  -69.4006 C   0  0  0  0  0  0  0  0  0  0  0  0
   42.9835   88.9163  -69.6129 C   0  0  0  0  0  0  0  0  0  0  0  0
   42.6653   87.9609  -70.5549 C   0  0  0  0  0  0  0  0  0  0  0  0
   44.1279   88.4187  -68.8966 C   0  0  0  0  0  0  0  0  0  0  0  0
   43.5817   86.9448  -70.4808 N   0  0  0  0  0  0  0  0  0  0  0  0
   44.4757   87.1940  -69.4762 C   0  0  0  0  0  0  0  0  0  0  0  0
   44.8953   88.8926  -67.8194 C   0  0  0  0  0  0  0  0  0  0  0  0
   45.5773   86.4400  -69.0503 C   0  0  0  0  0  0  0  0  0  0  0  0
   45.9838   88.1367  -67.3574 C   0  0  0  0  0  0  0  0  0  0  0  0
   46.3196   86.9302  -67.9703 C   0  0  0  0  0  0  0  0  0  0  0  0
   40.2260   89.1105  -71.5342 N   0  0  0  0  0  0  0  0  0  0  0  0
   39.1105   88.6962  -72.4025 C   0  0  2  0  0  0  0  0  0  0  0  0
   38.1034   87.9462  -71.5043 C   0  0  0  0  0  0  0  0  0  0  0  0
   37.7003   86.8176  -71.7845 O   0  0  0  0  0  0  0  0  0  0  0  0
   39.6087   87.7783  -73.5283 C   0  0  0  0  0  0  0  0  0  0  0  0
   39.2238   88.2669  -74.9346 C   0  0  0  0  0  0  0  0  0  0  0  0
   38.1632   87.4506  -75.6525 C   0  0  0  0  0  0  0  0  0  0  0  0
   38.3007   87.3653  -76.9026 O   0  0  0  0  0  1  0  0  0  0  0  0
   37.2544   86.9700  -74.9193 O   0  0  0  0  0  0  0  0  0  0  0  0
   37.6903   88.6658  -70.4104 N   0  0  0  0  0  0  0  0  0  0  0  0
   37.7465   88.1817  -69.0412 C   0  0  2  0  0  0  0  0  0  0  0  0
   36.3830   87.6187  -68.5336 C   0  0  0  0  0  0  0  0  0  0  0  0
   36.3677   86.5434  -67.9053 O   0  0  0  0  0  0  0  0  0  0  0  0
   38.4330   89.1176  -68.0292 C   0  0  0  0  0  0  0  0  0  0  0  0
   39.0677   88.4526  -66.8100 C   0  0  0  0  0  0  0  0  0  0  0  0
   40.5894   88.5442  -66.7136 C   0  0  0  0  0  0  0  0  0  0  0  0
   41.2603   87.5184  -66.9808 O   0  0  0  0  0  1  0  0  0  0  0  0
   41.0254   89.6916  -66.3858 O   0  0  0  0  0  0  0  0  0  0  0  0
   35.1912   88.2973  -68.7298 N   0  0  0  0  0  0  0  0  0  0  0  0
   34.7981   89.6687  -68.3823 C   0  0  2  0  0  0  0  0  0  0  0  0
   34.2015   89.7314  -66.9611 C   0  0  0  0  0  0  0  0  0  0  0  0
   34.8446   89.6040  -65.9250 O   0  0  0  0  0  0  0  0  0  0  0  0
   33.7018   90.0207  -69.3898 C   0  0  0  0  0  0  0  0  0  0  0  0
   33.0521   88.6786  -69.6994 C   0  0  0  0  0  0  0  0  0  0  0  0
   34.1680   87.6555  -69.5379 C   0  0  0  0  0  0  0  0  0  0  0  0
   32.8304   89.8264  -66.9163 N   0  0  0  0  0  0  0  0  0  0  0  0
  1  2  2  0
  1  3  1  0
  1  4  1  0
  5  4  1  1
  5  6  1  0
  5  8  1  0
  6  7  2  0
  6 11  1  0
  8  9  1  1
  8 10  1  0
 11 12  1  0
 11 17  1  0
 12 13  1  1
 12 15  1  0
 13 14  2  0
 13 18  1  0
 15 16  1  0
 16 17  1  0
 18 19  1  0
 19 20  1  0
 19 22  1  6
 20 21  2  0
 20 26  1  0
 22 23  1  0
 23 24  1  0
 24 25  1  0
 26 27  1  0
 27 28  1  0
 27 30  1  1
 28 29  2  0
 28 37  1  0
 30 31  1  0
 31 32  1  0
 32 33  1  0
 33 34  1  0
 34 35  2  0
 34 36  1  0
 37 38  1  0
 38 39  1  0
 38 41  1  6
 39 40  2  0
 39 42  1  0
 42 43  1  0
 43 44  1  0
 43 46  1  1
 44 45  2  0
 44 53  1  0
 46 47  1  0
 47 48  1  0
 48 49  1  0
 49 50  1  0
 50 51  2  0
 50 52  1  0
 53 54  1  0
 54 55  1  0
 54 57  1  1
 55 56  2  0
 55 62  1  0
 57 58  1  0
 58 59  1  0
 59 60  2  0
 59 61  1  0
 62 63  1  0
 63 64  1  0
 63 66  1  6
 64 65  2  0
 64 70  1  0
 66 67  1  0
 67 68  1  1
 67 69  1  0
 70 71  1  0
 70 76  1  0
 71 72  1  1
 71 74  1  0
 72 73  2  0
 72 77  1  0
 74 75  1  0
 75 76  1  0
 77 78  1  0
 78 79  1  0
 78 81  1  1
 79 80  2  0
 79 82  1  0
 82 83  1  0
 83 84  1  0
 83 86  1  6
 84 85  2  0
 84 88  1  0
 86 87  1  0
 88 89  1  0
 89 90  1  0
 89 92  1  1
 90 91  2  0
 90 99  1  0
 92 93  1  0
 93 94  2  0
 93 95  1  0
 94 96  1  0
 95 97  2  0
 96 98  2  0
 97 98  1  0
 99100  1  0
100101  1  0
100103  1  1
101102  2  0
101113  1  0
103104  1  0
104105  2  0
104106  1  0
105107  1  0
106108  2  0
106109  1  0
107108  1  0
108110  1  0
109111  2  0
110112  2  0
111112  1  0
113114  1  0
114115  1  0
114117  1  6
115116  2  0
115122  1  0
117118  1  0
118119  1  0
119120  1  0
119121  2  0
122123  1  0
123124  1  0
123126  1  1
124125  2  0
124131  1  0
126127  1  0
127128  1  0
128129  1  0
128130  2  0
131132  1  0
131137  1  0
132133  1  1
132135  1  0
133134  2  0
133138  1  0
135136  1  0
136137  1  0
M  CHG  4  35   1  51   1 120  -1 129  -1
M  END
$$$$
