
     RDKit          3D

138143  0  0  0  0  0  0  0  0999 V2000
   10.1295   10.4851   18.2733 C   0  0  0  0  0  0  0  0  0  0  0  0
   10.2363    9.5745   19.0885 O   0  0  0  0  0  0  0  0  0  0  0  0
   11.3228   11.0099   17.5198 C   0  0  0  0  0  0  0  0  0  0  0  0
    8.9443   11.1165   17.9680 N   0  0  0  0  0  0  0  0  0  0  0  0
    8.1581   11.8371   18.9756 C   0  0  2  0  0  0  0  0  0  0  0  0
    7.8107   13.3339   18.6804 C   0  0  0  0  0  0  0  0  0  0  0  0
    7.0533   13.9257   19.4662 O   0  0  0  0  0  0  0  0  0  0  0  0
    8.7953   11.6252   20.3798 C   0  0  1  0  0  0  0  0  0  0  0  0
   10.3246   11.5604   20.3590 C   0  0  0  0  0  0  0  0  0  0  0  0
    8.3311   12.6780   21.3962 C   0  0  0  0  0  0  0  0  0  0  0  0
    8.3769   14.0364   17.6318 N   0  0  0  0  0  0  0  0  0  0  0  0
    9.3039   15.1452   17.9248 C   0  0  2  0  0  0  0  0  0  0  0  0
    8.7525   16.5763   18.0484 C   0  0  0  0  0  0  0  0  0  0  0  0
    8.4949   17.2150   17.0272 O   0  0  0  0  0  0  0  0  0  0  0  0
   10.2838   15.1096   16.7483 C   0  0  0  0  0  0  0  0  0  0  0  0
    9.4148   14.6331   15.5948 C   0  0  0  0  0  0  0  0  0  0  0  0
    8.5267   13.5933   16.2563 C   0  0  0  0  0  0  0  0  0  0  0  0
    8.3847   17.0523   19.2760 N   0  0  0  0  0  0  0  0  0  0  0  0
    9.2890   17.9072   20.0699 C   0  0  2  0  0  0  0  0  0  0  0  0
    8.9759   19.4389   20.1439 C   0  0  0  0  0  0  0  0  0  0  0  0
    8.4754   20.0525   19.1996 O   0  0  0  0  0  0  0  0  0  0  0  0
   10.7597   17.7053   19.6547 C   0  0  0  0  0  0  0  0  0  0  0  0
   11.4789   16.6645   20.5187 C   0  0  0  0  0  0  0  0  0  0  0  0
   12.3983   17.4216   21.9030 S   0  0  0  0  0  0  0  0  0  0  0  0
   13.0778   18.8665   21.0587 C   0  0  0  0  0  0  0  0  0  0  0  0
    9.4459   20.1028   21.2424 N   0  0  0  0  0  0  0  0  0  0  0  0
    9.4901   21.5624   21.3733 C   0  0  2  0  0  0  0  0  0  0  0  0
    9.8564   21.8836   22.8446 C   0  0  0  0  0  0  0  0  0  0  0  0
   10.9007   21.5053   23.3652 O   0  0  0  0  0  0  0  0  0  0  0  0
    8.1699   22.2680   21.0264 C   0  0  0  0  0  0  0  0  0  0  0  0
    7.0820   22.2444   22.0930 C   0  0  0  0  0  0  0  0  0  0  0  0
    6.1621   21.0451   21.8496 C   0  0  0  0  0  0  0  0  0  0  0  0
    5.9970   20.2593   23.0622 N   0  0  0  0  0  0  0  0  0  0  0  0
    5.8453   18.9201   23.1038 C   0  0  0  0  0  0  0  0  0  0  0  0
    6.7423   18.0749   22.6161 N   0  0  0  0  0  4  0  0  0  0  0  0
    4.7151   18.4341   23.6199 N   0  0  0  0  0  0  0  0  0  0  0  0
    8.9081   22.6151   23.5279 N   0  0  0  0  0  0  0  0  0  0  0  0
    8.9284   22.9416   24.9576 C   0  0  2  0  0  0  0  0  0  0  0  0
   10.3570   22.7648   25.5611 C   0  0  0  0  0  0  0  0  0  0  0  0
   11.1109   23.7218   25.7837 O   0  0  0  0  0  0  0  0  0  0  0  0
    7.8785   22.2556   25.8004 C   0  0  0  0  0  0  0  0  0  0  0  0
   10.6658   21.4856   25.9590 N   0  0  0  0  0  0  0  0  0  0  0  0
   11.9627   21.0968   26.5123 C   0  0  2  0  0  0  0  0  0  0  0  0
   12.4116   19.8246   25.7559 C   0  0  0  0  0  0  0  0  0  0  0  0
   13.3666   19.8353   24.9737 O   0  0  0  0  0  0  0  0  0  0  0  0
   11.8371   20.8075   28.0043 C   0  0  0  0  0  0  0  0  0  0  0  0
   11.2035   19.4635   28.3304 C   0  0  0  0  0  0  0  0  0  0  0  0
   12.0103   18.6115   29.2935 C   0  0  0  0  0  0  0  0  0  0  0  0
   11.1627   18.2417   30.4353 N   0  0  0  0  0  0  0  0  0  0  0  0
   10.8437   16.9912   30.8062 C   0  0  0  0  0  0  0  0  0  0  0  0
    9.9209   16.2619   30.1609 N   0  0  0  0  0  4  0  0  0  0  0  0
   11.4730   16.4557   31.8529 N   0  0  0  0  0  0  0  0  0  0  0  0
   11.7133   18.6676   26.0125 N   0  0  0  0  0  0  0  0  0  0  0  0
   12.0710   17.4173   25.3533 C   0  0  2  0  0  0  0  0  0  0  0  0
   11.6358   17.5317   23.8916 C   0  0  0  0  0  0  0  0  0  0  0  0
   10.6499   16.9458   23.4498 O   0  0  0  0  0  0  0  0  0  0  0  0
   11.3587   16.2543   26.0385 C   0  0  0  0  0  0  0  0  0  0  0  0
   11.8284   15.9549   27.4575 C   0  0  0  0  0  0  0  0  0  0  0  0
   13.1837   15.2655   27.4378 C   0  0  0  0  0  0  0  0  0  0  0  0
   13.3625   14.0793   27.1754 O   0  0  0  0  0  0  0  0  0  0  0  0
   14.2221   16.0533   27.8371 N   0  0  0  0  0  0  0  0  0  0  0  0
   12.3920   18.4019   23.1454 N   0  0  0  0  0  0  0  0  0  0  0  0
   12.9732   18.0425   21.8457 C   0  0  2  0  0  0  0  0  0  0  0  0
   14.3049   18.8293   21.8088 C   0  0  0  0  0  0  0  0  0  0  0  0
   15.0054   18.8255   20.7815 O   0  0  0  0  0  0  0  0  0  0  0  0
   12.0051   18.4190   20.7131 C   0  0  0  0  0  0  0  0  0  0  0  0
   11.5798   17.2158   19.8351 C   0  0  1  0  0  0  0  0  0  0  0  0
   11.2858   17.6697   18.4033 C   0  0  0  0  0  0  0  0  0  0  0  0
   12.6540   16.1373   19.8269 C   0  0  0  0  0  0  0  0  0  0  0  0
   14.7018   19.5695   22.9118 N   0  0  0  0  0  0  0  0  0  0  0  0
   16.1403   19.8155   23.1820 C   0  0  2  0  0  0  0  0  0  0  0  0
   17.0036   18.6682   23.7434 C   0  0  0  0  0  0  0  0  0  0  0  0
   16.5274   17.7625   24.4335 O   0  0  0  0  0  0  0  0  0  0  0  0
   16.1431   20.9889   24.1691 C   0  0  0  0  0  0  0  0  0  0  0  0
   14.8629   21.7286   23.8142 C   0  0  0  0  0  0  0  0  0  0  0  0
   13.8892   20.5886   23.5707 C   0  0  0  0  0  0  0  0  0  0  0  0
   18.3565   18.8208   23.5734 N   0  0  0  0  0  0  0  0  0  0  0  0
   19.3020   17.9039   24.1992 C   0  0  2  0  0  0  0  0  0  0  0  0
   20.2575   18.7276   25.1004 C   0  0  0  0  0  0  0  0  0  0  0  0
   20.6591   19.8433   24.7694 O   0  0  0  0  0  0  0  0  0  0  0  0
   20.0740   17.1819   23.1177 C   0  0  0  0  0  0  0  0  0  0  0  0
   20.6166   18.1382   26.2853 N   0  0  0  0  0  0  0  0  0  0  0  0
   20.0095   18.5172   27.5547 C   0  0  2  0  0  0  0  0  0  0  0  0
   20.7823   17.8512   28.7063 C   0  0  0  0  0  0  0  0  0  0  0  0
   21.1866   18.5108   29.6680 O   0  0  0  0  0  0  0  0  0  0  0  0
   18.5156   18.1392   27.5715 C   0  0  0  0  0  0  0  0  0  0  0  0
   17.8770   18.6290   26.3850 O   0  0  0  0  0  0  0  0  0  0  0  0
   21.1015   16.5335   28.5169 N   0  0  0  0  0  0  0  0  0  0  0  0
   22.0703   15.8061   29.3365 C   0  0  2  0  0  0  0  0  0  0  0  0
   21.3166   14.7014   30.0910 C   0  0  0  0  0  0  0  0  0  0  0  0
   21.7021   14.2580   31.1719 O   0  0  0  0  0  0  0  0  0  0  0  0
   22.7454   16.7087   30.3914 C   0  0  0  0  0  0  0  0  0  0  0  0
   23.3809   15.9499   31.5323 C   0  0  0  0  0  0  0  0  0  0  0  0
   22.6789   15.7062   32.7198 C   0  0  0  0  0  0  0  0  0  0  0  0
   24.6923   15.4739   31.4145 C   0  0  0  0  0  0  0  0  0  0  0  0
   23.2767   15.0062   33.7676 C   0  0  0  0  0  0  0  0  0  0  0  0
   25.2929   14.7734   32.4657 C   0  0  0  0  0  0  0  0  0  0  0  0
   24.5868   14.5401   33.6416 C   0  0  0  0  0  0  0  0  0  0  0  0
   20.1727   14.2870   29.4662 N   0  0  0  0  0  0  0  0  0  0  0  0
   18.8956   13.9934   30.1234 C   0  0  2  0  0  0  0  0  0  0  0  0
   17.9070   13.6785   28.9745 C   0  0  0  0  0  0  0  0  0  0  0  0
   17.5500   14.5778   28.2013 O   0  0  0  0  0  0  0  0  0  0  0  0
   18.4392   15.0638   31.1305 C   0  0  0  0  0  0  0  0  0  0  0  0
   17.1372   14.8388   31.8413 C   0  0  0  0  0  0  0  0  0  0  0  0
   16.9476   14.4434   33.1486 C   0  0  0  0  0  0  0  0  0  0  0  0
   15.8282   15.0659   31.2890 C   0  0  0  0  0  0  0  0  0  0  0  0
   15.6063   14.4700   33.4282 N   0  0  0  0  0  0  0  0  0  0  0  0
   14.9037   14.8364   32.3135 C   0  0  0  0  0  0  0  0  0  0  0  0
   15.3472   15.4438   30.0242 C   0  0  0  0  0  0  0  0  0  0  0  0
   13.5233   15.0026   32.1395 C   0  0  0  0  0  0  0  0  0  0  0  0
   13.9657   15.5851   29.8211 C   0  0  0  0  0  0  0  0  0  0  0  0
   13.0700   15.3712   30.8682 C   0  0  0  0  0  0  0  0  0  0  0  0
   17.5425   12.3623   28.8057 N   0  0  0  0  0  0  0  0  0  0  0  0
   18.4557   11.4089   28.1520 C   0  0  2  0  0  0  0  0  0  0  0  0
   19.8590   12.0521   28.1734 C   0  0  0  0  0  0  0  0  0  0  0  0
   20.1620   12.9197   28.9921 O   0  0  0  0  0  0  0  0  0  0  0  0
   18.0151   11.1368   26.7063 C   0  0  0  0  0  0  0  0  0  0  0  0
   17.3888    9.7467   26.5067 C   0  0  0  0  0  0  0  0  0  0  0  0
   15.8870    9.7225   26.2816 C   0  0  0  0  0  0  0  0  0  0  0  0
   15.1885    9.5317   27.3133 O   0  0  0  0  0  1  0  0  0  0  0  0
   15.5113    9.8742   25.0856 O   0  0  0  0  0  0  0  0  0  0  0  0
   20.6970   11.5921   27.1878 N   0  0  0  0  0  0  0  0  0  0  0  0
   21.9790   10.9533   27.4331 C   0  0  2  0  0  0  0  0  0  0  0  0
   21.8982    9.3953   27.4292 C   0  0  0  0  0  0  0  0  0  0  0  0
   22.9060    8.7356   27.7468 O   0  0  0  0  0  0  0  0  0  0  0  0
   22.7919   11.5175   28.6130 C   0  0  0  0  0  0  0  0  0  0  0  0
   22.5362   12.9780   28.9785 C   0  0  0  0  0  0  0  0  0  0  0  0
   21.7031   13.2174   30.2361 C   0  0  0  0  0  0  0  0  0  0  0  0
   20.8464   12.3561   30.5492 O   0  0  0  0  0  1  0  0  0  0  0  0
   21.9931   14.2847   30.8612 O   0  0  0  0  0  0  0  0  0  0  0  0
   20.7278    8.7228   27.1175 N   0  0  0  0  0  0  0  0  0  0  0  0
   20.4283    7.2861   27.0721 C   0  0  2  0  0  0  0  0  0  0  0  0
   20.7308    6.7002   25.6775 C   0  0  0  0  0  0  0  0  0  0  0  0
   20.7060    7.3365   24.6297 O   0  0  0  0  0  0  0  0  0  0  0  0
   18.9216    7.2001   27.3233 C   0  0  0  0  0  0  0  0  0  0  0  0
   18.3861    8.5078   26.7557 C   0  0  0  0  0  0  0  0  0  0  0  0
   19.5185    9.5087   26.9397 C   0  0  0  0  0  0  0  0  0  0  0  0
   20.9253    5.3390   25.6550 N   0  0  0  0  0  0  0  0  0  0  0  0
  1  2  2  0
  1  3  1  0
  1  4  1  0
  5  4  1  6
  5  6  1  0
  5  8  1  0
  6  7  2  0
  6 11  1  0
  8  9  1  6
  8 10  1  0
 11 12  1  0
 11 17  1  0
 12 13  1  6
 12 15  1  0
 13 14  2  0
 13 18  1  0
 15 16  1  0
 16 17  1  0
 18 19  1  0
 19 20  1  0
 19 22  1  6
 20 21  2  0
 20 26  1  0
 22 23  1  0
 23 24  1  0
 24 25  1  0
 26 27  1  0
 27 28  1  0
 27 30  1  1
 28 29  2  0
 28 37  1  0
 30 31  1  0
 31 32  1  0
 32 33  1  0
 33 34  1  0
 34 35  2  0
 34 36  1  0
 37 38  1  0
 38 39  1  0
 38 41  1  1
 39 40  2  0
 39 42  1  0
 42 43  1  0
 43 44  1  0
 43 46  1  1
 44 45  2  0
 44 53  1  0
 46 47  1  0
 47 48  1  0
 48 49  1  0
 49 50  1  0
 50 51  2  0
 50 52  1  0
 53 54  1  0
 54 55  1  0
 54 57  1  1
 55 56  2  0
 55 62  1  0
 57 58  1  0
 58 59  1  0
 59 60  2  0
 59 61  1  0
 62 63  1  0
 63 64  1  0
 63 66  1  6
 64 65  2  0
 64 70  1  0
 66 67  1  0
 67 68  1  6
 67 69  1  0
 70 71  1  0
 70 76  1  0
 71 72  1  1
 71 74  1  0
 72 73  2  0
 72 77  1  0
 74 75  1  0
 75 76  1  0
 77 78  1  0
 78 79  1  0
 78 81  1  6
 79 80  2  0
 79 82  1  0
 82 83  1  0
 83 84  1  0
 83 86  1  6
 84 85  2  0
 84 88  1  0
 86 87  1  0
 88 89  1  0
 89 90  1  0
 89 92  1  1
 90 91  2  0
 90 99  1  0
 92 93  1  0
 93 94  2  0
 93 95  1  0
 94 96  1  0
 95 97  2  0
 96 98  2  0
 97 98  1  0
 99100  1  0
100101  1  0
100103  1  6
101102  2  0
101113  1  0
103104  1  0
104105  2  0
104106  1  0
105107  1  0
106108  2  0
106109  1  0
107108  1  0
108110  1  0
109111  2  0
110112  2  0
111112  1  0
113114  1  0
114115  1  0
114117  1  6
115116  2  0
115122  1  0
117118  1  0
118119  1  0
119120  1  0
119121  2  0
122123  1  0
123124  1  0
123126  1  1
124125  2  0
124131  1  0
126127  1  0
127128  1  0
128129  1  0
128130  2  0
131132  1  0
131137  1  0
132133  1  6
132135  1  0
133134  2  0
133138  1  0
135136  1  0
136137  1  0
M  CHG  4  35   1  51   1 120  -1 129  -1
M  END
$$$$
