
     RDKit          3D

138143  0  0  0  0  0  0  0  0999 V2000
   25.9562   14.4095   44.5270 C   0  0  0  0  0  0  0  0  0  0  0  0
   25.3272   13.6538   45.2606 O   0  0  0  0  0  0  0  0  0  0  0  0
   25.8840   15.9046   44.6904 C   0  0  0  0  0  0  0  0  0  0  0  0
   26.7699   13.9908   43.4979 N   0  0  0  0  0  0  0  0  0  0  0  0
   26.6492   14.5246   42.1365 C   0  0  2  0  0  0  0  0  0  0  0  0
   25.2075   14.6650   41.5450 C   0  0  0  0  0  0  0  0  0  0  0  0
   24.4364   13.6972   41.6445 O   0  0  0  0  0  0  0  0  0  0  0  0
   27.6235   13.7621   41.1920 C   0  0  1  0  0  0  0  0  0  0  0  0
   27.6931   14.3446   39.7781 C   0  0  0  0  0  0  0  0  0  0  0  0
   29.0371   13.6486   41.7800 C   0  0  0  0  0  0  0  0  0  0  0  0
   24.7407   15.8452   40.9945 N   0  0  0  0  0  0  0  0  0  0  0  0
   23.4310   15.8555   40.3167 C   0  0  2  0  0  0  0  0  0  0  0  0
   23.3645   15.5997   38.8009 C   0  0  0  0  0  0  0  0  0  0  0  0
   23.8153   14.5478   38.3453 O   0  0  0  0  0  0  0  0  0  0  0  0
   22.9016   17.2669   40.5878 C   0  0  0  0  0  0  0  0  0  0  0  0
   24.1691   18.1067   40.6182 C   0  0  0  0  0  0  0  0  0  0  0  0
   25.1528   17.1966   41.3333 C   0  0  0  0  0  0  0  0  0  0  0  0
   22.6486   16.4502   38.0054 N   0  0  0  0  0  0  0  0  0  0  0  0
   23.1083   16.7995   36.6468 C   0  0  2  0  0  0  0  0  0  0  0  0
   22.9253   18.2778   36.1663 C   0  0  0  0  0  0  0  0  0  0  0  0
   23.2183   19.2400   36.8783 O   0  0  0  0  0  0  0  0  0  0  0  0
   22.5192   15.8422   35.5921 C   0  0  0  0  0  0  0  0  0  0  0  0
   21.1929   16.3457   35.0139 C   0  0  0  0  0  0  0  0  0  0  0  0
   21.1354   16.2266   33.1925 S   0  0  0  0  0  0  0  0  0  0  0  0
   22.7468   16.9379   32.7932 C   0  0  0  0  0  0  0  0  0  0  0  0
   22.2598   18.4549   34.9856 N   0  0  0  0  0  0  0  0  0  0  0  0
   22.4524   19.5984   34.0885 C   0  0  2  0  0  0  0  0  0  0  0  0
   21.6767   19.2961   32.7813 C   0  0  0  0  0  0  0  0  0  0  0  0
   22.1407   18.6053   31.8801 O   0  0  0  0  0  0  0  0  0  0  0  0
   23.9206   19.8860   33.7379 C   0  0  0  0  0  0  0  0  0  0  0  0
   24.9744   19.2562   34.6404 C   0  0  0  0  0  0  0  0  0  0  0  0
   26.3144   19.2172   33.9012 C   0  0  0  0  0  0  0  0  0  0  0  0
   27.4060   19.6099   34.7783 N   0  0  0  0  0  0  0  0  0  0  0  0
   27.8007   18.9333   35.8758 C   0  0  0  0  0  0  0  0  0  0  0  0
   27.6979   17.6168   35.9901 N   0  0  0  0  0  4  0  0  0  0  0  0
   28.2722   19.6353   36.9078 N   0  0  0  0  0  0  0  0  0  0  0  0
   20.4291   19.8783   32.7039 N   0  0  0  0  0  0  0  0  0  0  0  0
   19.2222   19.4415   33.4135 C   0  0  2  0  0  0  0  0  0  0  0  0
   18.0279   20.4129   33.1556 C   0  0  0  0  0  0  0  0  0  0  0  0
   16.9636   20.3442   33.7850 O   0  0  0  0  0  0  0  0  0  0  0  0
   19.3976   19.1527   34.8863 C   0  0  0  0  0  0  0  0  0  0  0  0
   18.2918   21.4388   32.2793 N   0  0  0  0  0  0  0  0  0  0  0  0
   17.2883   22.0322   31.3961 C   0  0  2  0  0  0  0  0  0  0  0  0
   16.2497   20.9280   31.0889 C   0  0  0  0  0  0  0  0  0  0  0  0
   16.5896   19.7922   30.7450 O   0  0  0  0  0  0  0  0  0  0  0  0
   17.9392   22.5186   30.1057 C   0  0  0  0  0  0  0  0  0  0  0  0
   18.0568   24.0313   29.9951 C   0  0  0  0  0  0  0  0  0  0  0  0
   17.0579   24.6660   29.0445 C   0  0  0  0  0  0  0  0  0  0  0  0
   15.7547   24.7709   29.7151 N   0  0  0  0  0  0  0  0  0  0  0  0
   15.5331   25.3118   30.9239 C   0  0  0  0  0  0  0  0  0  0  0  0
   16.1772   26.4083   31.3514 N   0  0  0  0  0  4  0  0  0  0  0  0
   14.6352   24.7375   31.7253 N   0  0  0  0  0  0  0  0  0  0  0  0
   14.9235   21.2599   31.2408 N   0  0  0  0  0  0  0  0  0  0  0  0
   13.9076   20.7014   30.3565 C   0  0  2  0  0  0  0  0  0  0  0  0
   14.6140   19.7372   29.4022 C   0  0  0  0  0  0  0  0  0  0  0  0
   14.9840   18.6182   29.7504 O   0  0  0  0  0  0  0  0  0  0  0  0
   13.2282   21.8265   29.5808 C   0  0  0  0  0  0  0  0  0  0  0  0
   13.6880   23.2330   29.9474 C   0  0  0  0  0  0  0  0  0  0  0  0
   14.6038   23.7939   28.8708 C   0  0  0  0  0  0  0  0  0  0  0  0
   15.8216   23.9094   28.9775 O   0  0  0  0  0  0  0  0  0  0  0  0
   13.9544   24.2676   27.7699 N   0  0  0  0  0  0  0  0  0  0  0  0
   14.7246   20.2001   28.1140 N   0  0  0  0  0  0  0  0  0  0  0  0
   15.1353   19.3472   26.9915 C   0  0  2  0  0  0  0  0  0  0  0  0
   15.1463   20.3120   25.7820 C   0  0  0  0  0  0  0  0  0  0  0  0
   14.8457   21.5089   25.9340 O   0  0  0  0  0  0  0  0  0  0  0  0
   14.1543   18.1748   26.8339 C   0  0  0  0  0  0  0  0  0  0  0  0
   14.7325   16.8154   27.3000 C   0  0  1  0  0  0  0  0  0  0  0  0
   14.2946   16.5057   28.7334 C   0  0  0  0  0  0  0  0  0  0  0  0
   14.3008   15.6894   26.3711 C   0  0  0  0  0  0  0  0  0  0  0  0
   15.5262   19.8495   24.5316 N   0  0  0  0  0  0  0  0  0  0  0  0
   15.0818   20.5458   23.2984 C   0  0  2  0  0  0  0  0  0  0  0  0
   13.6235   20.3775   22.8276 C   0  0  0  0  0  0  0  0  0  0  0  0
   13.1491   21.0427   21.9025 O   0  0  0  0  0  0  0  0  0  0  0  0
   16.0336   20.0318   22.2116 C   0  0  0  0  0  0  0  0  0  0  0  0
   17.2942   19.7055   22.9968 C   0  0  0  0  0  0  0  0  0  0  0  0
   16.7330   19.0735   24.2587 C   0  0  0  0  0  0  0  0  0  0  0  0
   12.8454   19.5717   23.6198 N   0  0  0  0  0  0  0  0  0  0  0  0
   11.4479   19.3160   23.2910 C   0  0  2  0  0  0  0  0  0  0  0  0
   11.0539   20.2215   22.0958 C   0  0  0  0  0  0  0  0  0  0  0  0
   10.8248   21.4224   22.2408 O   0  0  0  0  0  0  0  0  0  0  0  0
   10.5952   19.6239   24.5014 C   0  0  0  0  0  0  0  0  0  0  0  0
   10.9856   19.6018   20.8746 N   0  0  0  0  0  0  0  0  0  0  0  0
   10.6169   20.3191   19.6608 C   0  0  2  0  0  0  0  0  0  0  0  0
    9.7341   19.4143   18.7842 C   0  0  0  0  0  0  0  0  0  0  0  0
    8.6655   18.9636   19.2068 O   0  0  0  0  0  0  0  0  0  0  0  0
   11.8773   20.7923   18.9109 C   0  0  0  0  0  0  0  0  0  0  0  0
   12.8688   19.7568   18.9253 O   0  0  0  0  0  0  0  0  0  0  0  0
   10.2796   19.0425   17.5849 N   0  0  0  0  0  0  0  0  0  0  0  0
    9.6268   18.1352   16.6415 C   0  0  2  0  0  0  0  0  0  0  0  0
    9.5914   16.7377   17.2766 C   0  0  0  0  0  0  0  0  0  0  0  0
   10.4154   16.3709   18.1133 O   0  0  0  0  0  0  0  0  0  0  0  0
   10.3962   18.0179   15.3083 C   0  0  0  0  0  0  0  0  0  0  0  0
    9.8451   16.9689   14.3717 C   0  0  0  0  0  0  0  0  0  0  0  0
   10.4057   16.7633   13.1046 C   0  0  0  0  0  0  0  0  0  0  0  0
    8.7573   16.1796   14.7639 C   0  0  0  0  0  0  0  0  0  0  0  0
    9.8870   15.7930   12.2472 C   0  0  0  0  0  0  0  0  0  0  0  0
    8.2357   15.2077   13.9038 C   0  0  0  0  0  0  0  0  0  0  0  0
    8.7989   15.0146   12.6463 C   0  0  0  0  0  0  0  0  0  0  0  0
    8.5486   15.9627   16.8491 N   0  0  0  0  0  0  0  0  0  0  0  0
    7.4734   15.4320   17.6926 C   0  0  2  0  0  0  0  0  0  0  0  0
    6.4532   14.8073   16.7102 C   0  0  0  0  0  0  0  0  0  0  0  0
    6.6975   13.7179   16.1738 O   0  0  0  0  0  0  0  0  0  0  0  0
    6.9033   16.4418   18.7043 C   0  0  0  0  0  0  0  0  0  0  0  0
    7.6435   16.6239   19.9966 C   0  0  0  0  0  0  0  0  0  0  0  0
    8.7557   15.9369   20.4353 C   0  0  0  0  0  0  0  0  0  0  0  0
    7.3547   17.6160   20.9978 C   0  0  0  0  0  0  0  0  0  0  0  0
    9.1815   16.4918   21.6137 N   0  0  0  0  0  0  0  0  0  0  0  0
    8.3430   17.5077   21.9818 C   0  0  0  0  0  0  0  0  0  0  0  0
    6.3541   18.5893   21.1569 C   0  0  0  0  0  0  0  0  0  0  0  0
    8.3958   18.3520   23.0987 C   0  0  0  0  0  0  0  0  0  0  0  0
    6.3715   19.4243   22.2850 C   0  0  0  0  0  0  0  0  0  0  0  0
    7.3828   19.3071   23.2377 C   0  0  0  0  0  0  0  0  0  0  0  0
    5.2529   15.4622   16.5542 N   0  0  0  0  0  0  0  0  0  0  0  0
    4.6879   15.6835   15.2119 C   0  0  2  0  0  0  0  0  0  0  0  0
    4.5093   17.2086   15.0511 C   0  0  0  0  0  0  0  0  0  0  0  0
    4.3475   17.9482   16.0213 O   0  0  0  0  0  0  0  0  0  0  0  0
    3.3363   14.9693   15.0655 C   0  0  0  0  0  0  0  0  0  0  0  0
    3.4585   13.4404   14.9563 C   0  0  0  0  0  0  0  0  0  0  0  0
    3.3409   12.8645   13.5558 C   0  0  0  0  0  0  0  0  0  0  0  0
    4.2504   12.0570   13.2250 O   0  0  0  0  0  1  0  0  0  0  0  0
    2.3596   13.2765   12.8762 O   0  0  0  0  0  0  0  0  0  0  0  0
    4.5145   17.6347   13.7458 N   0  0  0  0  0  0  0  0  0  0  0  0
    4.6353   19.0240   13.3370 C   0  0  2  0  0  0  0  0  0  0  0  0
    5.7023   19.2436   12.2201 C   0  0  0  0  0  0  0  0  0  0  0  0
    6.8249   19.6835   12.5329 O   0  0  0  0  0  0  0  0  0  0  0  0
    4.7308   20.0513   14.4803 C   0  0  0  0  0  0  0  0  0  0  0  0
    3.4982   20.1947   15.3702 C   0  0  0  0  0  0  0  0  0  0  0  0
    3.5888   21.2455   16.4750 C   0  0  0  0  0  0  0  0  0  0  0  0
    3.6338   22.4532   16.1385 O   0  0  0  0  0  1  0  0  0  0  0  0
    3.5851   20.7690   17.6527 O   0  0  0  0  0  0  0  0  0  0  0  0
    5.4507   18.9302   10.8943 N   0  0  0  0  0  0  0  0  0  0  0  0
    6.3208   18.9840    9.7128 C   0  0  2  0  0  0  0  0  0  0  0  0
    6.2564   20.3703    9.0392 C   0  0  0  0  0  0  0  0  0  0  0  0
    6.9648   20.7289    8.1049 O   0  0  0  0  0  0  0  0  0  0  0  0
    5.7320   17.9462    8.7551 C   0  0  0  0  0  0  0  0  0  0  0  0
    4.2474   17.9437    9.0944 C   0  0  0  0  0  0  0  0  0  0  0  0
    4.1821   18.2984   10.5736 C   0  0  0  0  0  0  0  0  0  0  0  0
    5.4045   21.2648    9.6436 N   0  0  0  0  0  0  0  0  0  0  0  0
  1  2  2  0
  1  3  1  0
  1  4  1  0
  5  4  1  1
  5  6  1  0
  5  8  1  0
  6  7  2  0
  6 11  1  0
  8  9  1  6
  8 10  1  0
 11 12  1  0
 11 17  1  0
 12 13  1  6
 12 15  1  0
 13 14  2  0
 13 18  1  0
 15 16  1  0
 16 17  1  0
 18 19  1  0
 19 20  1  0
 19 22  1  6
 20 21  2  0
 20 26  1  0
 22 23  1  0
 23 24  1  0
 24 25  1  0
 26 27  1  0
 27 28  1  0
 27 30  1  6
 28 29  2  0
 28 37  1  0
 30 31  1  0
 31 32  1  0
 32 33  1  0
 33 34  1  0
 34 35  2  0
 34 36  1  0
 37 38  1  0
 38 39  1  0
 38 41  1  1
 39 40  2  0
 39 42  1  0
 42 43  1  0
 43 44  1  0
 43 46  1  6
 44 45  2  0
 44 53  1  0
 46 47  1  0
 47 48  1  0
 48 49  1  0
 49 50  1  0
 50 51  2  0
 50 52  1  0
 53 54  1  0
 54 55  1  0
 54 57  1  6
 55 56  2  0
 55 62  1  0
 57 58  1  0
 58 59  1  0
 59 60  2  0
 59 61  1  0
 62 63  1  0
 63 64  1  0
 63 66  1  6
 64 65  2  0
 64 70  1  0
 66 67  1  0
 67 68  1  1
 67 69  1  0
 70 71  1  0
 70 76  1  0
 71 72  1  6
 71 74  1  0
 72 73  2  0
 72 77  1  0
 74 75  1  0
 75 76  1  0
 77 78  1  0
 78 79  1  0
 78 81  1  1
 79 80  2  0
 79 82  1  0
 82 83  1  0
 83 84  1  0
 83 86  1  6
 84 85  2  0
 84 88  1  0
 86 87  1  0
 88 89  1  0
 89 90  1  0
 89 92  1  6
 90 91  2  0
 90 99  1  0
 92 93  1  0
 93 94  2  0
 93 95  1  0
 94 96  1  0
 95 97  2  0
 96 98  2  0
 97 98  1  0
 99100  1  0
100101  1  0
100103  1  6
101102  2  0
101113  1  0
103104  1  0
104105  2  0
104106  1  0
105107  1  0
106108  2  0
106109  1  0
107108  1  0
108110  1  0
109111  2  0
110112  2  0
111112  1  0
113114  1  0
114115  1  0
114117  1  1
115116  2  0
115122  1  0
117118  1  0
118119  1  0
119120  1  0
119121  2  0
122123  1  0
123124  1  0
123126  1  1
124125  2  0
124131  1  0
126127  1  0
127128  1  0
128129  1  0
128130  2  0
131132  1  0
131137  1  0
132133  1  6
132135  1  0
133134  2  0
133138  1  0
135136  1  0
136137  1  0
M  CHG  4  35   1  51   1 120  -1 129  -1
M  END
$$$$
