
     RDKit          3D

138143  0  0  0  0  0  0  0  0999 V2000
   -1.8334   17.9109   23.8415 C   0  0  0  0  0  0  0  0  0  0  0  0
   -2.5249   18.2974   24.7783 O   0  0  0  0  0  0  0  0  0  0  0  0
   -1.2406   16.5270   23.8204 C   0  0  0  0  0  0  0  0  0  0  0  0
   -1.5243   18.6765   22.7392 N   0  0  0  0  0  0  0  0  0  0  0  0
   -0.3001   18.4672   21.9580 C   0  0  2  0  0  0  0  0  0  0  0  0
    1.0639   18.7527   22.6695 C   0  0  0  0  0  0  0  0  0  0  0  0
    1.1271   19.7154   23.4507 O   0  0  0  0  0  0  0  0  0  0  0  0
   -0.4324   19.1858   20.5838 C   0  0  1  0  0  0  0  0  0  0  0  0
    0.7481   18.9363   19.6417 C   0  0  0  0  0  0  0  0  0  0  0  0
   -1.7494   18.8459   19.8718 C   0  0  0  0  0  0  0  0  0  0  0  0
    2.1663   17.9298   22.5229 N   0  0  0  0  0  0  0  0  0  0  0  0
    3.3970   18.2331   23.2766 C   0  0  2  0  0  0  0  0  0  0  0  0
    4.4797   19.1141   22.6294 C   0  0  0  0  0  0  0  0  0  0  0  0
    4.7401   18.9713   21.4340 O   0  0  0  0  0  0  0  0  0  0  0  0
    4.0004   16.8508   23.5429 C   0  0  0  0  0  0  0  0  0  0  0  0
    3.5914   16.0572   22.3118 C   0  0  0  0  0  0  0  0  0  0  0  0
    2.1812   16.5567   22.0487 C   0  0  0  0  0  0  0  0  0  0  0  0
    5.0064   20.1603   23.3343 N   0  0  0  0  0  0  0  0  0  0  0  0
    5.9265   21.1258   22.7016 C   0  0  2  0  0  0  0  0  0  0  0  0
    7.4279   20.7139   22.5411 C   0  0  0  0  0  0  0  0  0  0  0  0
    8.2863   21.0287   23.3673 O   0  0  0  0  0  0  0  0  0  0  0  0
    5.8449   22.5067   23.3819 C   0  0  0  0  0  0  0  0  0  0  0  0
    5.9257   22.4174   24.9091 C   0  0  0  0  0  0  0  0  0  0  0  0
    7.6336   22.1657   25.5043 S   0  0  0  0  0  0  0  0  0  0  0  0
    8.3985   23.6744   24.8713 C   0  0  0  0  0  0  0  0  0  0  0  0
    7.7762   20.1383   21.3513 N   0  0  0  0  0  0  0  0  0  0  0  0
    9.0010   19.3629   21.1322 C   0  0  2  0  0  0  0  0  0  0  0  0
    9.9703   20.2519   20.3123 C   0  0  0  0  0  0  0  0  0  0  0  0
    9.5795   21.1252   19.5446 O   0  0  0  0  0  0  0  0  0  0  0  0
    8.7856   18.0406   20.3797 C   0  0  0  0  0  0  0  0  0  0  0  0
    9.8182   17.6829   19.3179 C   0  0  0  0  0  0  0  0  0  0  0  0
    9.3624   18.2339   17.9643 C   0  0  0  0  0  0  0  0  0  0  0  0
    8.3234   19.2375   18.1324 N   0  0  0  0  0  0  0  0  0  0  0  0
    7.0264   18.9752   18.3918 C   0  0  0  0  0  0  0  0  0  0  0  0
    6.1315   18.7420   17.4422 N   0  0  0  0  0  4  0  0  0  0  0  0
    6.6253   18.9994   19.6639 N   0  0  0  0  0  0  0  0  0  0  0  0
   11.3074   19.9733   20.5018 N   0  0  0  0  0  0  0  0  0  0  0  0
   12.2218   20.6807   21.4042 C   0  0  2  0  0  0  0  0  0  0  0  0
   13.7027   20.2481   21.1670 C   0  0  0  0  0  0  0  0  0  0  0  0
   14.5312   20.9810   20.6100 O   0  0  0  0  0  0  0  0  0  0  0  0
   11.8570   20.6390   22.8700 C   0  0  0  0  0  0  0  0  0  0  0  0
   14.0590   19.0529   21.7453 N   0  0  0  0  0  0  0  0  0  0  0  0
   15.3850   18.7809   22.2994 C   0  0  2  0  0  0  0  0  0  0  0  0
   15.1780   17.8836   23.5421 C   0  0  0  0  0  0  0  0  0  0  0  0
   15.5678   18.2241   24.6629 O   0  0  0  0  0  0  0  0  0  0  0  0
   16.0707   20.0836   22.6969 C   0  0  0  0  0  0  0  0  0  0  0  0
   15.7406   20.5615   24.1028 C   0  0  0  0  0  0  0  0  0  0  0  0
   14.3467   20.1903   24.5759 C   0  0  0  0  0  0  0  0  0  0  0  0
   14.4454   19.1002   25.5561 N   0  0  0  0  0  0  0  0  0  0  0  0
   13.4510   18.6558   26.3414 C   0  0  0  0  0  0  0  0  0  0  0  0
   12.5030   17.8165   25.8976 N   0  0  0  0  0  4  0  0  0  0  0  0
   13.4098   19.0624   27.6108 N   0  0  0  0  0  0  0  0  0  0  0  0
   14.5146   16.6943   23.3490 N   0  0  0  0  0  0  0  0  0  0  0  0
   14.8406   15.8319   22.2194 C   0  0  2  0  0  0  0  0  0  0  0  0
   16.2535   15.2936   22.4496 C   0  0  0  0  0  0  0  0  0  0  0  0
   16.9264   14.8012   21.5468 O   0  0  0  0  0  0  0  0  0  0  0  0
   14.7747   16.6365   20.9242 C   0  0  0  0  0  0  0  0  0  0  0  0
   13.3857   16.7543   20.3070 C   0  0  0  0  0  0  0  0  0  0  0  0
   12.3159   16.7199   21.3871 C   0  0  0  0  0  0  0  0  0  0  0  0
   12.4797   16.2792   22.5215 O   0  0  0  0  0  0  0  0  0  0  0  0
   11.0859   17.1388   20.9750 N   0  0  0  0  0  0  0  0  0  0  0  0
   16.7265   15.4808   23.7252 N   0  0  0  0  0  0  0  0  0  0  0  0
   18.0814   15.0949   24.1392 C   0  0  2  0  0  0  0  0  0  0  0  0
   18.3259   13.7596   23.3968 C   0  0  0  0  0  0  0  0  0  0  0  0
   17.4160   13.2407   22.7269 O   0  0  0  0  0  0  0  0  0  0  0  0
   18.1493   14.9690   25.6693 C   0  0  0  0  0  0  0  0  0  0  0  0
   17.3468   16.0623   26.4177 C   0  0  1  0  0  0  0  0  0  0  0  0
   17.8779   16.2419   27.8419 C   0  0  0  0  0  0  0  0  0  0  0  0
   17.4019   17.3886   25.6726 C   0  0  0  0  0  0  0  0  0  0  0  0
   19.5735   13.1574   23.4491 N   0  0  0  0  0  0  0  0  0  0  0  0
   19.7870   11.9236   24.2461 C   0  0  2  0  0  0  0  0  0  0  0  0
   19.8631   12.0284   25.7823 C   0  0  0  0  0  0  0  0  0  0  0  0
   20.3223   13.0218   26.3528 O   0  0  0  0  0  0  0  0  0  0  0  0
   21.1019   11.3489   23.7060 C   0  0  0  0  0  0  0  0  0  0  0  0
   21.1207   11.8472   22.2695 C   0  0  0  0  0  0  0  0  0  0  0  0
   20.5981   13.2659   22.4140 C   0  0  0  0  0  0  0  0  0  0  0  0
   19.5532   10.8766   26.4604 N   0  0  0  0  0  0  0  0  0  0  0  0
   18.4754   10.0042   26.0092 C   0  0  2  0  0  0  0  0  0  0  0  0
   18.8581    8.5403   26.3472 C   0  0  0  0  0  0  0  0  0  0  0  0
   18.8281    8.1128   27.5013 O   0  0  0  0  0  0  0  0  0  0  0  0
   18.2934   10.1805   24.5183 C   0  0  0  0  0  0  0  0  0  0  0  0
   19.2220    7.7573   25.2819 N   0  0  0  0  0  0  0  0  0  0  0  0
   20.4354    6.9503   25.2919 C   0  0  2  0  0  0  0  0  0  0  0  0
   20.1944    5.6809   26.1268 C   0  0  0  0  0  0  0  0  0  0  0  0
   20.3695    5.6787   27.3486 O   0  0  0  0  0  0  0  0  0  0  0  0
   21.6245    7.7720   25.8264 C   0  0  0  0  0  0  0  0  0  0  0  0
   22.6380    6.8906   26.3279 O   0  0  0  0  0  0  0  0  0  0  0  0
   19.9167    4.5482   25.4099 N   0  0  0  0  0  0  0  0  0  0  0  0
   20.9083    3.8284   24.6111 C   0  0  2  0  0  0  0  0  0  0  0  0
   22.1415    3.5868   25.4935 C   0  0  0  0  0  0  0  0  0  0  0  0
   23.0530    4.4070   25.5944 O   0  0  0  0  0  0  0  0  0  0  0  0
   21.3719    4.6358   23.3798 C   0  0  0  0  0  0  0  0  0  0  0  0
   20.4558    4.5138   22.1851 C   0  0  0  0  0  0  0  0  0  0  0  0
   19.1808    3.9464   22.3055 C   0  0  0  0  0  0  0  0  0  0  0  0
   20.8735    4.9736   20.9304 C   0  0  0  0  0  0  0  0  0  0  0  0
   18.3441    3.8371   21.1948 C   0  0  0  0  0  0  0  0  0  0  0  0
   20.0357    4.8625   19.8160 C   0  0  0  0  0  0  0  0  0  0  0  0
   18.7724    4.2942   19.9471 C   0  0  0  0  0  0  0  0  0  0  0  0
   22.1116    2.3994   26.1717 N   0  0  0  0  0  0  0  0  0  0  0  0
   22.4270    2.2154   27.5915 C   0  0  2  0  0  0  0  0  0  0  0  0
   22.2651    0.6983   27.8533 C   0  0  0  0  0  0  0  0  0  0  0  0
   22.5560    0.2268   28.9611 O   0  0  0  0  0  0  0  0  0  0  0  0
   21.6539    3.1490   28.5396 C   0  0  0  0  0  0  0  0  0  0  0  0
   22.4032    4.2984   29.1466 C   0  0  0  0  0  0  0  0  0  0  0  0
   22.7931    5.4695   28.5319 C   0  0  0  0  0  0  0  0  0  0  0  0
   22.7968    4.4102   30.5260 C   0  0  0  0  0  0  0  0  0  0  0  0
   23.3500    6.2974   29.4712 N   0  0  0  0  0  0  0  0  0  0  0  0
   23.3723    5.6748   30.6887 C   0  0  0  0  0  0  0  0  0  0  0  0
   22.7166    3.5614   31.6427 C   0  0  0  0  0  0  0  0  0  0  0  0
   23.8381    6.1419   31.9249 C   0  0  0  0  0  0  0  0  0  0  0  0
   23.2063    3.9989   32.8832 C   0  0  0  0  0  0  0  0  0  0  0  0
   23.7541    5.2738   33.0191 C   0  0  0  0  0  0  0  0  0  0  0  0
   21.6989   -0.0531   26.8490 N   0  0  0  0  0  0  0  0  0  0  0  0
   22.4217   -0.2839   25.5863 C   0  0  2  0  0  0  0  0  0  0  0  0
   22.8438   -1.7689   25.5813 C   0  0  0  0  0  0  0  0  0  0  0  0
   23.0157   -2.3904   24.5330 O   0  0  0  0  0  0  0  0  0  0  0  0
   23.6575    0.6228   25.4927 C   0  0  0  0  0  0  0  0  0  0  0  0
   24.5465    0.3252   24.2739 C   0  0  0  0  0  0  0  0  0  0  0  0
   25.7435   -0.5737   24.5303 C   0  0  0  0  0  0  0  0  0  0  0  0
   26.1543   -1.2251   23.5325 O   0  0  0  0  0  1  0  0  0  0  0  0
   26.1761   -0.5824   25.7166 O   0  0  0  0  0  0  0  0  0  0  0  0
   22.9685   -2.3161   26.8344 N   0  0  0  0  0  0  0  0  0  0  0  0
   23.6378   -3.5746   27.1171 C   0  0  2  0  0  0  0  0  0  0  0  0
   25.1832   -3.5061   26.9145 C   0  0  0  0  0  0  0  0  0  0  0  0
   25.7612   -2.4088   27.0300 O   0  0  0  0  0  0  0  0  0  0  0  0
   22.9970   -4.8275   26.4917 C   0  0  0  0  0  0  0  0  0  0  0  0
   22.3354   -5.8074   27.4581 C   0  0  0  0  0  0  0  0  0  0  0  0
   21.4785   -5.1862   28.5593 C   0  0  0  0  0  0  0  0  0  0  0  0
   20.9101   -5.9566   29.3699 O   0  0  0  0  0  1  0  0  0  0  0  0
   21.4524   -3.9161   28.5490 O   0  0  0  0  0  0  0  0  0  0  0  0
   25.9379   -4.6362   26.6450 N   0  0  0  0  0  0  0  0  0  0  0  0
   27.3464   -4.9404   26.9269 C   0  0  2  0  0  0  0  0  0  0  0  0
   28.2561   -4.4771   25.7704 C   0  0  0  0  0  0  0  0  0  0  0  0
   28.1040   -4.7840   24.5932 O   0  0  0  0  0  0  0  0  0  0  0  0
   27.3998   -6.4672   27.0108 C   0  0  0  0  0  0  0  0  0  0  0  0
   26.2881   -6.9190   26.0732 C   0  0  0  0  0  0  0  0  0  0  0  0
   25.2484   -5.8084   26.1330 C   0  0  0  0  0  0  0  0  0  0  0  0
   29.3651   -3.7636   26.1610 N   0  0  0  0  0  0  0  0  0  0  0  0
  1  2  2  0
  1  3  1  0
  1  4  1  0
  5  4  1  1
  5  6  1  0
  5  8  1  0
  6  7  2  0
  6 11  1  0
  8  9  1  6
  8 10  1  0
 11 12  1  0
 11 17  1  0
 12 13  1  6
 12 15  1  0
 13 14  2  0
 13 18  1  0
 15 16  1  0
 16 17  1  0
 18 19  1  0
 19 20  1  0
 19 22  1  1
 20 21  2  0
 20 26  1  0
 22 23  1  0
 23 24  1  0
 24 25  1  0
 26 27  1  0
 27 28  1  0
 27 30  1  6
 28 29  2  0
 28 37  1  0
 30 31  1  0
 31 32  1  0
 32 33  1  0
 33 34  1  0
 34 35  2  0
 34 36  1  0
 37 38  1  0
 38 39  1  0
 38 41  1  1
 39 40  2  0
 39 42  1  0
 42 43  1  0
 43 44  1  0
 43 46  1  1
 44 45  2  0
 44 53  1  0
 46 47  1  0
 47 48  1  0
 48 49  1  0
 49 50  1  0
 50 51  2  0
 50 52  1  0
 53 54  1  0
 54 55  1  0
 54 57  1  6
 55 56  2  0
 55 62  1  0
 57 58  1  0
 58 59  1  0
 59 60  2  0
 59 61  1  0
 62 63  1  0
 63 64  1  0
 63 66  1  1
 64 65  2  0
 64 70  1  0
 66 67  1  0
 67 68  1  1
 67 69  1  0
 70 71  1  0
 70 76  1  0
 71 72  1  1
 71 74  1  0
 72 73  2  0
 72 77  1  0
 74 75  1  0
 75 76  1  0
 77 78  1  0
 78 79  1  0
 78 81  1  6
 79 80  2  0
 79 82  1  0
 82 83  1  0
 83 84  1  0
 83 86  1  1
 84 85  2  0
 84 88  1  0
 86 87  1  0
 88 89  1  0
 89 90  1  0
 89 92  1  6
 90 91  2  0
 90 99  1  0
 92 93  1  0
 93 94  2  0
 93 95  1  0
 94 96  1  0
 95 97  2  0
 96 98  2  0
 97 98  1  0
 99100  1  0
100101  1  0
100103  1  1
101102  2  0
101113  1  0
103104  1  0
104105  2  0
104106  1  0
105107  1  0
106108  2  0
106109  1  0
107108  1  0
108110  1  0
109111  2  0
110112  2  0
111112  1  0
113114  1  0
114115  1  0
114117  1  1
115116  2  0
115122  1  0
117118  1  0
118119  1  0
119120  1  0
119121  2  0
122123  1  0
123124  1  0
123126  1  6
124125  2  0
124131  1  0
126127  1  0
127128  1  0
128129  1  0
128130  2  0
131132  1  0
131137  1  0
132133  1  6
132135  1  0
133134  2  0
133138  1  0
135136  1  0
136137  1  0
M  CHG  4  35   1  51   1 120  -1 129  -1
M  END
$$$$
