
     RDKit          3D

138143  0  0  0  0  0  0  0  0999 V2000
   21.5586   -1.8206   18.8085 C   0  0  0  0  0  0  0  0  0  0  0  0
   20.3445   -1.9591   18.9182 O   0  0  0  0  0  0  0  0  0  0  0  0
   22.3313   -2.4997   17.7091 C   0  0  0  0  0  0  0  0  0  0  0  0
   22.3308   -1.0572   19.6555 N   0  0  0  0  0  0  0  0  0  0  0  0
   21.9939   -0.8740   21.0718 C   0  0  2  0  0  0  0  0  0  0  0  0
   22.8962    0.0950   21.9056 C   0  0  0  0  0  0  0  0  0  0  0  0
   23.9955   -0.3238   22.3024 O   0  0  0  0  0  0  0  0  0  0  0  0
   21.8094   -2.2650   21.7452 C   0  0  1  0  0  0  0  0  0  0  0  0
   21.6792   -2.1996   23.2691 C   0  0  0  0  0  0  0  0  0  0  0  0
   20.6287   -3.0479   21.1535 C   0  0  0  0  0  0  0  0  0  0  0  0
   22.5513    1.4135   22.1429 N   0  0  0  0  0  0  0  0  0  0  0  0
   23.4464    2.2570   22.9567 C   0  0  2  0  0  0  0  0  0  0  0  0
   23.2188    2.3514   24.4755 C   0  0  0  0  0  0  0  0  0  0  0  0
   22.1919    2.8823   24.9008 O   0  0  0  0  0  0  0  0  0  0  0  0
   23.2608    3.6539   22.3569 C   0  0  0  0  0  0  0  0  0  0  0  0
   21.8065    3.6438   21.9123 C   0  0  0  0  0  0  0  0  0  0  0  0
   21.6351    2.2351   21.3707 C   0  0  0  0  0  0  0  0  0  0  0  0
   24.0606    1.6891   25.3248 N   0  0  0  0  0  0  0  0  0  0  0  0
   24.4570    2.2724   26.6216 C   0  0  2  0  0  0  0  0  0  0  0  0
   24.1526    3.7874   26.8699 C   0  0  0  0  0  0  0  0  0  0  0  0
   23.0480    4.1809   27.2490 O   0  0  0  0  0  0  0  0  0  0  0  0
   25.9402    1.9910   26.9331 C   0  0  0  0  0  0  0  0  0  0  0  0
   26.5903    1.0542   25.9100 C   0  0  0  0  0  0  0  0  0  0  0  0
   28.3568    0.7538   26.2623 S   0  0  0  0  0  0  0  0  0  0  0  0
   29.0039    2.4193   25.9986 C   0  0  0  0  0  0  0  0  0  0  0  0
   25.1168    4.6732   26.4776 N   0  0  0  0  0  0  0  0  0  0  0  0
   25.0196    6.1277   26.6335 C   0  0  2  0  0  0  0  0  0  0  0  0
   23.5307    6.4654   26.9006 C   0  0  0  0  0  0  0  0  0  0  0  0
   22.6989    5.6112   27.1889 O   0  0  0  0  0  0  0  0  0  0  0  0
   25.4972    6.9275   25.4114 C   0  0  0  0  0  0  0  0  0  0  0  0
   26.9480    7.3933   25.4244 C   0  0  0  0  0  0  0  0  0  0  0  0
   27.0048    8.8784   25.0571 C   0  0  0  0  0  0  0  0  0  0  0  0
   27.9907    9.1212   24.0159 N   0  0  0  0  0  0  0  0  0  0  0  0
   27.7360    9.7055   22.8277 C   0  0  0  0  0  0  0  0  0  0  0  0
   28.6791    9.9707   21.9349 N   0  0  0  0  0  4  0  0  0  0  0  0
   26.4800   10.0724   22.5673 N   0  0  0  0  0  0  0  0  0  0  0  0
   23.2109    7.8007   26.7729 N   0  0  0  0  0  0  0  0  0  0  0  0
   21.9929    8.4521   27.2657 C   0  0  2  0  0  0  0  0  0  0  0  0
   20.8606    8.4278   26.1917 C   0  0  0  0  0  0  0  0  0  0  0  0
   20.9618    9.0068   25.1016 O   0  0  0  0  0  0  0  0  0  0  0  0
   22.1796    9.8341   27.8475 C   0  0  0  0  0  0  0  0  0  0  0  0
   19.8006    7.6022   26.4829 N   0  0  0  0  0  0  0  0  0  0  0  0
   18.4265    7.8606   26.0537 C   0  0  2  0  0  0  0  0  0  0  0  0
   18.0830    9.3044   26.4894 C   0  0  0  0  0  0  0  0  0  0  0  0
   18.8766    9.9959   27.1344 O   0  0  0  0  0  0  0  0  0  0  0  0
   17.4711    6.8696   26.7097 C   0  0  0  0  0  0  0  0  0  0  0  0
   17.9302    6.3627   28.0685 C   0  0  0  0  0  0  0  0  0  0  0  0
   16.7987    5.9936   29.0107 C   0  0  0  0  0  0  0  0  0  0  0  0
   15.8177    7.0871   29.0368 N   0  0  0  0  0  0  0  0  0  0  0  0
   15.2916    7.6463   30.1385 C   0  0  0  0  0  0  0  0  0  0  0  0
   14.0507    7.3673   30.5653 N   0  0  0  0  0  4  0  0  0  0  0  0
   16.0349    8.5074   30.8344 N   0  0  0  0  0  0  0  0  0  0  0  0
   16.8582    9.7973   26.1037 N   0  0  0  0  0  0  0  0  0  0  0  0
   16.7377   11.1303   25.5253 C   0  0  2  0  0  0  0  0  0  0  0  0
   16.7562   10.9707   24.0043 C   0  0  0  0  0  0  0  0  0  0  0  0
   17.1351    9.9389   23.4545 O   0  0  0  0  0  0  0  0  0  0  0  0
   17.9037   11.9983   25.9904 C   0  0  0  0  0  0  0  0  0  0  0  0
   17.5972   13.4878   26.0981 C   0  0  0  0  0  0  0  0  0  0  0  0
   17.6890   14.1526   24.7335 C   0  0  0  0  0  0  0  0  0  0  0  0
   17.7953   15.3620   24.5493 O   0  0  0  0  0  0  0  0  0  0  0  0
   17.5461   13.2989   23.6804 N   0  0  0  0  0  0  0  0  0  0  0  0
   16.2417   12.0439   23.3192 N   0  0  0  0  0  0  0  0  0  0  0  0
   14.8019   12.3173   23.2279 C   0  0  2  0  0  0  0  0  0  0  0  0
   14.1904   11.4434   24.3487 C   0  0  0  0  0  0  0  0  0  0  0  0
   14.8631   10.5394   24.8743 O   0  0  0  0  0  0  0  0  0  0  0  0
   14.2866   11.9654   21.8235 C   0  0  0  0  0  0  0  0  0  0  0  0
   12.9303   12.6283   21.4764 C   0  0  1  0  0  0  0  0  0  0  0  0
   12.5379   12.3280   20.0278 C   0  0  0  0  0  0  0  0  0  0  0  0
   11.8328   12.1560   22.4195 C   0  0  0  0  0  0  0  0  0  0  0  0
   12.9009   11.6912   24.7932 N   0  0  0  0  0  0  0  0  0  0  0  0
   12.1808   12.9225   24.3826 C   0  0  2  0  0  0  0  0  0  0  0  0
   12.5733   14.2684   25.0237 C   0  0  0  0  0  0  0  0  0  0  0  0
   13.7490   14.6273   25.1343 O   0  0  0  0  0  0  0  0  0  0  0  0
   10.7095   12.6186   24.6893 C   0  0  0  0  0  0  0  0  0  0  0  0
   10.6427   11.1062   24.5470 C   0  0  0  0  0  0  0  0  0  0  0  0
   11.9433   10.6641   25.1948 C   0  0  0  0  0  0  0  0  0  0  0  0
   11.5434   14.9519   25.6192 N   0  0  0  0  0  0  0  0  0  0  0  0
   11.7833   16.1963   26.3404 C   0  0  2  0  0  0  0  0  0  0  0  0
   12.7710   17.0581   25.5126 C   0  0  0  0  0  0  0  0  0  0  0  0
   12.8742   16.9330   24.2922 O   0  0  0  0  0  0  0  0  0  0  0  0
   12.3630   15.8718   27.6990 C   0  0  0  0  0  0  0  0  0  0  0  0
   13.5108   17.9674   26.2240 N   0  0  0  0  0  0  0  0  0  0  0  0
   13.3469   19.4050   26.0510 C   0  0  2  0  0  0  0  0  0  0  0  0
   13.0443   20.0496   27.4147 C   0  0  0  0  0  0  0  0  0  0  0  0
   12.3598   19.4641   28.2587 O   0  0  0  0  0  0  0  0  0  0  0  0
   12.2420   19.7008   25.0183 C   0  0  0  0  0  0  0  0  0  0  0  0
   11.2272   20.5202   25.6134 O   0  0  0  0  0  0  0  0  0  0  0  0
   13.4619   21.3452   27.5595 N   0  0  0  0  0  0  0  0  0  0  0  0
   14.6731   21.7329   28.2819 C   0  0  2  0  0  0  0  0  0  0  0  0
   15.8023   21.9024   27.2553 C   0  0  0  0  0  0  0  0  0  0  0  0
   16.1749   20.9850   26.5250 O   0  0  0  0  0  0  0  0  0  0  0  0
   15.1254   20.6581   29.2935 C   0  0  0  0  0  0  0  0  0  0  0  0
   14.0666   20.2798   30.3021 C   0  0  0  0  0  0  0  0  0  0  0  0
   13.3330   19.0937   30.1714 C   0  0  0  0  0  0  0  0  0  0  0  0
   13.8046   21.1180   31.3925 C   0  0  0  0  0  0  0  0  0  0  0  0
   12.3561   18.7558   31.1078 C   0  0  0  0  0  0  0  0  0  0  0  0
   12.8239   20.7805   32.3309 C   0  0  0  0  0  0  0  0  0  0  0  0
   12.0993   19.6011   32.1889 C   0  0  0  0  0  0  0  0  0  0  0  0
   16.3244   23.1658   27.2118 N   0  0  0  0  0  0  0  0  0  0  0  0
   15.6038   24.3774   26.8094 C   0  0  2  0  0  0  0  0  0  0  0  0
   14.8853   24.8701   28.0890 C   0  0  0  0  0  0  0  0  0  0  0  0
   15.2485   24.4596   29.1997 O   0  0  0  0  0  0  0  0  0  0  0  0
   14.7174   24.2042   25.5633 C   0  0  0  0  0  0  0  0  0  0  0  0
   13.8942   25.3803   25.1273 C   0  0  0  0  0  0  0  0  0  0  0  0
   14.3437   26.5980   24.6620 C   0  0  0  0  0  0  0  0  0  0  0  0
   12.4578   25.4199   25.0544 C   0  0  0  0  0  0  0  0  0  0  0  0
   13.2654   27.3452   24.2660 N   0  0  0  0  0  0  0  0  0  0  0  0
   12.1076   26.6563   24.5017 C   0  0  0  0  0  0  0  0  0  0  0  0
   11.4311   24.5262   25.4024 C   0  0  0  0  0  0  0  0  0  0  0  0
   10.7795   27.0241   24.2485 C   0  0  0  0  0  0  0  0  0  0  0  0
   10.0927   24.8888   25.1858 C   0  0  0  0  0  0  0  0  0  0  0  0
    9.7759   26.1195   24.6121 C   0  0  0  0  0  0  0  0  0  0  0  0
   13.9204   25.8386   27.9314 N   0  0  0  0  0  0  0  0  0  0  0  0
   14.1380   27.2040   28.4397 C   0  0  2  0  0  0  0  0  0  0  0  0
   13.7555   28.1695   27.2973 C   0  0  0  0  0  0  0  0  0  0  0  0
   13.3030   27.7615   26.2280 O   0  0  0  0  0  0  0  0  0  0  0  0
   15.6059   27.4078   28.8420 C   0  0  0  0  0  0  0  0  0  0  0  0
   16.5014   27.8735   27.6820 C   0  0  0  0  0  0  0  0  0  0  0  0
   16.5454   29.3721   27.4391 C   0  0  0  0  0  0  0  0  0  0  0  0
   17.6574   29.8255   27.0561 O   0  0  0  0  0  1  0  0  0  0  0  0
   15.4711   29.9947   27.6691 O   0  0  0  0  0  0  0  0  0  0  0  0
   14.0004   29.4906   27.5800 N   0  0  0  0  0  0  0  0  0  0  0  0
   13.1784   30.3079   28.4565 C   0  0  2  0  0  0  0  0  0  0  0  0
   12.7919   31.6826   27.8282 C   0  0  0  0  0  0  0  0  0  0  0  0
   13.4308   32.7001   28.1571 O   0  0  0  0  0  0  0  0  0  0  0  0
   13.6621   30.4195   29.9142 C   0  0  0  0  0  0  0  0  0  0  0  0
   14.7794   29.4673   30.3348 C   0  0  0  0  0  0  0  0  0  0  0  0
   15.3055   29.6397   31.7583 C   0  0  0  0  0  0  0  0  0  0  0  0
   14.8981   30.6225   32.4229 O   0  0  0  0  0  1  0  0  0  0  0  0
   16.1056   28.7277   32.1351 O   0  0  0  0  0  0  0  0  0  0  0  0
   11.7816   31.8005   26.8876 N   0  0  0  0  0  0  0  0  0  0  0  0
   11.2456   32.9798   26.1963 C   0  0  2  0  0  0  0  0  0  0  0  0
   10.0990   33.6225   27.0036 C   0  0  0  0  0  0  0  0  0  0  0  0
    9.2674   33.0012   27.6560 O   0  0  0  0  0  0  0  0  0  0  0  0
   10.6752   32.4308   24.8871 C   0  0  0  0  0  0  0  0  0  0  0  0
   10.2513   31.0126   25.2450 C   0  0  0  0  0  0  0  0  0  0  0  0
   11.2159   30.5790   26.3403 C   0  0  0  0  0  0  0  0  0  0  0  0
    9.9824   34.9845   26.8532 N   0  0  0  0  0  0  0  0  0  0  0  0
  1  2  2  0
  1  3  1  0
  1  4  1  0
  5  4  1  6
  5  6  1  0
  5  8  1  0
  6  7  2  0
  6 11  1  0
  8  9  1  1
  8 10  1  0
 11 12  1  0
 11 17  1  0
 12 13  1  1
 12 15  1  0
 13 14  2  0
 13 18  1  0
 15 16  1  0
 16 17  1  0
 18 19  1  0
 19 20  1  0
 19 22  1  6
 20 21  2  0
 20 26  1  0
 22 23  1  0
 23 24  1  0
 24 25  1  0
 26 27  1  0
 27 28  1  0
 27 30  1  6
 28 29  2  0
 28 37  1  0
 30 31  1  0
 31 32  1  0
 32 33  1  0
 33 34  1  0
 34 35  2  0
 34 36  1  0
 37 38  1  0
 38 39  1  0
 38 41  1  6
 39 40  2  0
 39 42  1  0
 42 43  1  0
 43 44  1  0
 43 46  1  1
 44 45  2  0
 44 53  1  0
 46 47  1  0
 47 48  1  0
 48 49  1  0
 49 50  1  0
 50 51  2  0
 50 52  1  0
 53 54  1  0
 54 55  1  0
 54 57  1  1
 55 56  2  0
 55 62  1  0
 57 58  1  0
 58 59  1  0
 59 60  2  0
 59 61  1  0
 62 63  1  0
 63 64  1  0
 63 66  1  6
 64 65  2  0
 64 70  1  0
 66 67  1  0
 67 68  1  6
 67 69  1  0
 70 71  1  0
 70 76  1  0
 71 72  1  1
 71 74  1  0
 72 73  2  0
 72 77  1  0
 74 75  1  0
 75 76  1  0
 77 78  1  0
 78 79  1  0
 78 81  1  1
 79 80  2  0
 79 82  1  0
 82 83  1  0
 83 84  1  0
 83 86  1  6
 84 85  2  0
 84 88  1  0
 86 87  1  0
 88 89  1  0
 89 90  1  0
 89 92  1  1
 90 91  2  0
 90 99  1  0
 92 93  1  0
 93 94  2  0
 93 95  1  0
 94 96  1  0
 95 97  2  0
 96 98  2  0
 97 98  1  0
 99100  1  0
100101  1  0
100103  1  6
101102  2  0
101113  1  0
103104  1  0
104105  2  0
104106  1  0
105107  1  0
106108  2  0
106109  1  0
107108  1  0
108110  1  0
109111  2  0
110112  2  0
111112  1  0
113114  1  0
114115  1  0
114117  1  6
115116  2  0
115122  1  0
117118  1  0
118119  1  0
119120  1  0
119121  2  0
122123  1  0
123124  1  0
123126  1  1
124125  2  0
124131  1  0
126127  1  0
127128  1  0
128129  1  0
128130  2  0
131132  1  0
131137  1  0
132133  1  1
132135  1  0
133134  2  0
133138  1  0
135136  1  0
136137  1  0
M  CHG  4  35   1  51   1 120  -1 129  -1
M  END
$$$$
