
     RDKit          3D

138143  0  0  0  0  0  0  0  0999 V2000
   33.6789    1.5147   18.7056 C   0  0  0  0  0  0  0  0  0  0  0  0
   33.4720    0.7925   17.7357 O   0  0  0  0  0  0  0  0  0  0  0  0
   35.0749    1.7864   19.1999 C   0  0  0  0  0  0  0  0  0  0  0  0
   32.6890    2.1352   19.4347 N   0  0  0  0  0  0  0  0  0  0  0  0
   31.4245    1.4684   19.7655 C   0  0  2  0  0  0  0  0  0  0  0  0
   30.1533    2.3694   19.9096 C   0  0  0  0  0  0  0  0  0  0  0  0
   30.2850    3.5956   19.7675 O   0  0  0  0  0  0  0  0  0  0  0  0
   31.6403    0.5206   20.9810 C   0  0  1  0  0  0  0  0  0  0  0  0
   30.4593   -0.4156   21.2498 C   0  0  0  0  0  0  0  0  0  0  0  0
   32.9361   -0.2943   20.8629 C   0  0  0  0  0  0  0  0  0  0  0  0
   28.8882    1.8453   20.1061 N   0  0  0  0  0  0  0  0  0  0  0  0
   27.7171    2.7369   20.0154 C   0  0  2  0  0  0  0  0  0  0  0  0
   27.1875    3.4179   21.2894 C   0  0  0  0  0  0  0  0  0  0  0  0
   26.0866    3.0921   21.7358 O   0  0  0  0  0  0  0  0  0  0  0  0
   26.6165    1.8233   19.4679 C   0  0  0  0  0  0  0  0  0  0  0  0
   26.9675    0.4699   20.0662 C   0  0  0  0  0  0  0  0  0  0  0  0
   28.4843    0.4550   19.9853 C   0  0  0  0  0  0  0  0  0  0  0  0
   28.0136    4.2357   22.0087 N   0  0  0  0  0  0  0  0  0  0  0  0
   27.5290    4.9593   23.2006 C   0  0  2  0  0  0  0  0  0  0  0  0
   26.0314    5.4132   23.2266 C   0  0  0  0  0  0  0  0  0  0  0  0
   25.5024    5.9840   22.2711 O   0  0  0  0  0  0  0  0  0  0  0  0
   28.4340    6.1622   23.5327 C   0  0  0  0  0  0  0  0  0  0  0  0
   28.1555    6.7437   24.9225 C   0  0  0  0  0  0  0  0  0  0  0  0
   29.0107    5.8239   26.2481 S   0  0  0  0  0  0  0  0  0  0  0  0
   29.1764    7.1427   27.4710 C   0  0  0  0  0  0  0  0  0  0  0  0
   25.3845    5.3051   24.4258 N   0  0  0  0  0  0  0  0  0  0  0  0
   23.9661    5.6122   24.6335 C   0  0  2  0  0  0  0  0  0  0  0  0
   23.8502    7.1438   24.8408 C   0  0  0  0  0  0  0  0  0  0  0  0
   23.5336    7.9124   23.9388 O   0  0  0  0  0  0  0  0  0  0  0  0
   23.3356    4.9001   25.8405 C   0  0  0  0  0  0  0  0  0  0  0  0
   21.8199    4.9867   25.9694 C   0  0  0  0  0  0  0  0  0  0  0  0
   21.4559    5.3582   27.4093 C   0  0  0  0  0  0  0  0  0  0  0  0
   22.6404    5.7258   28.1688 N   0  0  0  0  0  0  0  0  0  0  0  0
   22.6328    6.3639   29.3567 C   0  0  0  0  0  0  0  0  0  0  0  0
   22.4004    7.6632   29.4785 N   0  0  0  0  0  4  0  0  0  0  0  0
   22.9195    5.6549   30.4498 N   0  0  0  0  0  0  0  0  0  0  0  0
   24.1468    7.5766   26.1160 N   0  0  0  0  0  0  0  0  0  0  0  0
   23.8763    8.9095   26.6647 C   0  0  2  0  0  0  0  0  0  0  0  0
   22.3435    9.1961   26.7331 C   0  0  0  0  0  0  0  0  0  0  0  0
   21.6479    9.3533   25.7206 O   0  0  0  0  0  0  0  0  0  0  0  0
   24.6279   10.0489   26.0165 C   0  0  0  0  0  0  0  0  0  0  0  0
   21.7937    9.1221   27.9910 N   0  0  0  0  0  0  0  0  0  0  0  0
   20.3871    9.3983   28.2812 C   0  0  2  0  0  0  0  0  0  0  0  0
   20.3461   10.1567   29.6286 C   0  0  0  0  0  0  0  0  0  0  0  0
   19.2860   10.5581   30.1177 O   0  0  0  0  0  0  0  0  0  0  0  0
   19.6013    8.0954   28.3844 C   0  0  0  0  0  0  0  0  0  0  0  0
   18.0934    8.2632   28.2747 C   0  0  0  0  0  0  0  0  0  0  0  0
   17.5804    8.3720   26.8502 C   0  0  0  0  0  0  0  0  0  0  0  0
   16.4009    7.5096   26.6960 N   0  0  0  0  0  0  0  0  0  0  0  0
   15.1247    7.8798   26.8894 C   0  0  0  0  0  0  0  0  0  0  0  0
   14.6710    8.3073   28.0775 N   0  0  0  0  0  4  0  0  0  0  0  0
   14.2804    7.8232   25.8588 N   0  0  0  0  0  0  0  0  0  0  0  0
   21.5455   10.3438   30.2755 N   0  0  0  0  0  0  0  0  0  0  0  0
   21.6516   10.1660   31.7188 C   0  0  2  0  0  0  0  0  0  0  0  0
   20.6410   11.1112   32.3701 C   0  0  0  0  0  0  0  0  0  0  0  0
   19.8289   10.7303   33.2102 O   0  0  0  0  0  0  0  0  0  0  0  0
   23.0704   10.4975   32.1733 C   0  0  0  0  0  0  0  0  0  0  0  0
   24.0032   10.9884   31.0721 C   0  0  0  0  0  0  0  0  0  0  0  0
   23.8248   12.4816   30.8463 C   0  0  0  0  0  0  0  0  0  0  0  0
   24.7178   13.3177   30.9525 O   0  0  0  0  0  0  0  0  0  0  0  0
   22.5398   12.8643   30.6002 N   0  0  0  0  0  0  0  0  0  0  0  0
   20.7749   12.4251   31.9935 N   0  0  0  0  0  0  0  0  0  0  0  0
   20.3654   13.5466   32.8484 C   0  0  2  0  0  0  0  0  0  0  0  0
   18.8668   13.2733   33.1197 C   0  0  0  0  0  0  0  0  0  0  0  0
   18.5260   12.3277   33.8515 O   0  0  0  0  0  0  0  0  0  0  0  0
   20.6271   14.8797   32.1301 C   0  0  0  0  0  0  0  0  0  0  0  0
   20.1120   16.1155   32.9092 C   0  0  1  0  0  0  0  0  0  0  0  0
   20.8204   16.2353   34.2606 C   0  0  0  0  0  0  0  0  0  0  0  0
   20.3110   17.3922   32.1044 C   0  0  0  0  0  0  0  0  0  0  0  0
   17.9021   14.1061   32.5741 N   0  0  0  0  0  0  0  0  0  0  0  0
   16.5648   13.5777   32.2059 C   0  0  2  0  0  0  0  0  0  0  0  0
   16.4238   12.7167   30.9349 C   0  0  0  0  0  0  0  0  0  0  0  0
   17.0724   12.9443   29.9099 O   0  0  0  0  0  0  0  0  0  0  0  0
   15.6877   14.8288   32.0771 C   0  0  0  0  0  0  0  0  0  0  0  0
   16.3511   15.8037   33.0371 C   0  0  0  0  0  0  0  0  0  0  0  0
   17.8271   15.5492   32.7856 C   0  0  0  0  0  0  0  0  0  0  0  0
   15.4048   11.7985   30.9640 N   0  0  0  0  0  0  0  0  0  0  0  0
   15.1011   10.9738   29.8003 C   0  0  2  0  0  0  0  0  0  0  0  0
   14.2744   11.8240   28.8016 C   0  0  0  0  0  0  0  0  0  0  0  0
   13.5033   12.7044   29.1836 O   0  0  0  0  0  0  0  0  0  0  0  0
   14.3171    9.7612   30.2497 C   0  0  0  0  0  0  0  0  0  0  0  0
   14.4638   11.5373   27.4741 N   0  0  0  0  0  0  0  0  0  0  0  0
   13.7255   12.2213   26.4203 C   0  0  2  0  0  0  0  0  0  0  0  0
   13.5525   11.2716   25.2225 C   0  0  0  0  0  0  0  0  0  0  0  0
   13.8426   10.0751   25.3106 O   0  0  0  0  0  0  0  0  0  0  0  0
   14.4418   13.5257   26.0201 C   0  0  0  0  0  0  0  0  0  0  0  0
   15.2284   13.3065   24.8417 O   0  0  0  0  0  0  0  0  0  0  0  0
   13.1974   11.8694   24.0433 N   0  0  0  0  0  0  0  0  0  0  0  0
   12.4453   11.1959   22.9848 C   0  0  2  0  0  0  0  0  0  0  0  0
   12.5741   12.0353   21.7056 C   0  0  0  0  0  0  0  0  0  0  0  0
   11.6198   12.6302   21.2064 O   0  0  0  0  0  0  0  0  0  0  0  0
   10.9412   11.0806   23.3126 C   0  0  0  0  0  0  0  0  0  0  0  0
   10.1297   10.3945   22.2392 C   0  0  0  0  0  0  0  0  0  0  0  0
   10.6120   10.2799   20.9291 C   0  0  0  0  0  0  0  0  0  0  0  0
    8.8736    9.8569   22.5448 C   0  0  0  0  0  0  0  0  0  0  0  0
    9.8529    9.6460   19.9456 C   0  0  0  0  0  0  0  0  0  0  0  0
    8.1112    9.2226   21.5584 C   0  0  0  0  0  0  0  0  0  0  0  0
    8.5993    9.1177   20.2597 C   0  0  0  0  0  0  0  0  0  0  0  0
   13.8443   12.0814   21.2005 N   0  0  0  0  0  0  0  0  0  0  0  0
   14.9766   12.7997   21.7931 C   0  0  2  0  0  0  0  0  0  0  0  0
   14.4748   14.2483   22.0080 C   0  0  0  0  0  0  0  0  0  0  0  0
   14.8942   14.9131   22.9652 O   0  0  0  0  0  0  0  0  0  0  0  0
   16.2977   12.6524   21.0176 C   0  0  0  0  0  0  0  0  0  0  0  0
   16.9744   11.3136   21.0461 C   0  0  0  0  0  0  0  0  0  0  0  0
   17.0866   10.4035   20.0163 C   0  0  0  0  0  0  0  0  0  0  0  0
   17.6988   10.7617   22.1600 C   0  0  0  0  0  0  0  0  0  0  0  0
   17.8780    9.3639   20.4295 N   0  0  0  0  0  0  0  0  0  0  0  0
   18.2559    9.5526   21.7304 C   0  0  0  0  0  0  0  0  0  0  0  0
   17.9321   11.1751   23.4823 C   0  0  0  0  0  0  0  0  0  0  0  0
   19.0648    8.7568   22.5523 C   0  0  0  0  0  0  0  0  0  0  0  0
   18.7140   10.3763   24.3311 C   0  0  0  0  0  0  0  0  0  0  0  0
   19.2746    9.1869   23.8671 C   0  0  0  0  0  0  0  0  0  0  0  0
   13.6426   14.7716   21.0450 N   0  0  0  0  0  0  0  0  0  0  0  0
   12.7540   15.9045   21.3564 C   0  0  2  0  0  0  0  0  0  0  0  0
   12.8416   16.8790   20.1622 C   0  0  0  0  0  0  0  0  0  0  0  0
   12.5049   18.0585   20.2620 O   0  0  0  0  0  0  0  0  0  0  0  0
   13.1965   16.6040   22.6499 C   0  0  0  0  0  0  0  0  0  0  0  0
   12.3030   17.7925   23.0418 C   0  0  0  0  0  0  0  0  0  0  0  0
   11.4238   17.5863   24.2629 C   0  0  0  0  0  0  0  0  0  0  0  0
   10.3306   16.9965   24.0489 O   0  0  0  0  0  1  0  0  0  0  0  0
   11.8775   18.0480   25.3472 O   0  0  0  0  0  0  0  0  0  0  0  0
   13.2885   16.2976   19.0014 N   0  0  0  0  0  0  0  0  0  0  0  0
   14.6473   16.4093   18.4983 C   0  0  2  0  0  0  0  0  0  0  0  0
   14.7737   16.0411   16.9876 C   0  0  0  0  0  0  0  0  0  0  0  0
   15.8235   16.3257   16.3805 O   0  0  0  0  0  0  0  0  0  0  0  0
   15.7392   15.7679   19.3745 C   0  0  0  0  0  0  0  0  0  0  0  0
   16.0926   14.3148   19.0657 C   0  0  0  0  0  0  0  0  0  0  0  0
   17.1040   13.6580   20.0031 C   0  0  0  0  0  0  0  0  0  0  0  0
   17.7300   12.6542   19.5857 O   0  0  0  0  0  1  0  0  0  0  0  0
   17.2224   14.2314   21.1306 O   0  0  0  0  0  0  0  0  0  0  0  0
   13.7667   15.3744   16.3089 N   0  0  0  0  0  0  0  0  0  0  0  0
   12.3405   15.2156   16.6202 C   0  0  2  0  0  0  0  0  0  0  0  0
   12.1000   13.9714   17.4999 C   0  0  0  0  0  0  0  0  0  0  0  0
   12.6425   12.8837   17.3386 O   0  0  0  0  0  0  0  0  0  0  0  0
   11.6739   14.9912   15.2615 C   0  0  0  0  0  0  0  0  0  0  0  0
   12.7569   14.3084   14.4368 C   0  0  0  0  0  0  0  0  0  0  0  0
   14.0694   14.8474   14.9890 C   0  0  0  0  0  0  0  0  0  0  0  0
   11.1138   14.1183   18.4470 N   0  0  0  0  0  0  0  0  0  0  0  0
  1  2  2  0
  1  3  1  0
  1  4  1  0
  5  4  1  1
  5  6  1  0
  5  8  1  0
  6  7  2  0
  6 11  1  0
  8  9  1  6
  8 10  1  0
 11 12  1  0
 11 17  1  0
 12 13  1  1
 12 15  1  0
 13 14  2  0
 13 18  1  0
 15 16  1  0
 16 17  1  0
 18 19  1  0
 19 20  1  0
 19 22  1  6
 20 21  2  0
 20 26  1  0
 22 23  1  0
 23 24  1  0
 24 25  1  0
 26 27  1  0
 27 28  1  0
 27 30  1  1
 28 29  2  0
 28 37  1  0
 30 31  1  0
 31 32  1  0
 32 33  1  0
 33 34  1  0
 34 35  2  0
 34 36  1  0
 37 38  1  0
 38 39  1  0
 38 41  1  6
 39 40  2  0
 39 42  1  0
 42 43  1  0
 43 44  1  0
 43 46  1  1
 44 45  2  0
 44 53  1  0
 46 47  1  0
 47 48  1  0
 48 49  1  0
 49 50  1  0
 50 51  2  0
 50 52  1  0
 53 54  1  0
 54 55  1  0
 54 57  1  1
 55 56  2  0
 55 62  1  0
 57 58  1  0
 58 59  1  0
 59 60  2  0
 59 61  1  0
 62 63  1  0
 63 64  1  0
 63 66  1  6
 64 65  2  0
 64 70  1  0
 66 67  1  0
 67 68  1  1
 67 69  1  0
 70 71  1  0
 70 76  1  0
 71 72  1  6
 71 74  1  0
 72 73  2  0
 72 77  1  0
 74 75  1  0
 75 76  1  0
 77 78  1  0
 78 79  1  0
 78 81  1  1
 79 80  2  0
 79 82  1  0
 82 83  1  0
 83 84  1  0
 83 86  1  6
 84 85  2  0
 84 88  1  0
 86 87  1  0
 88 89  1  0
 89 90  1  0
 89 92  1  1
 90 91  2  0
 90 99  1  0
 92 93  1  0
 93 94  2  0
 93 95  1  0
 94 96  1  0
 95 97  2  0
 96 98  2  0
 97 98  1  0
 99100  1  0
100101  1  0
100103  1  6
101102  2  0
101113  1  0
103104  1  0
104105  2  0
104106  1  0
105107  1  0
106108  2  0
106109  1  0
107108  1  0
108110  1  0
109111  2  0
110112  2  0
111112  1  0
113114  1  0
114115  1  0
114117  1  1
115116  2  0
115122  1  0
117118  1  0
118119  1  0
119120  1  0
119121  2  0
122123  1  0
123124  1  0
123126  1  1
124125  2  0
124131  1  0
126127  1  0
127128  1  0
128129  1  0
128130  2  0
131132  1  0
131137  1  0
132133  1  1
132135  1  0
133134  2  0
133138  1  0
135136  1  0
136137  1  0
M  CHG  4  35   1  51   1 120  -1 129  -1
M  END
$$$$
