
     RDKit          3D

138143  0  0  0  0  0  0  0  0999 V2000
   10.5497   25.0100   25.6573 C   0  0  0  0  0  0  0  0  0  0  0  0
   11.6987   25.3947   25.8492 O   0  0  0  0  0  0  0  0  0  0  0  0
    9.3754   25.9428   25.7919 C   0  0  0  0  0  0  0  0  0  0  0  0
   10.2118   23.7198   25.3138 N   0  0  0  0  0  0  0  0  0  0  0  0
   10.0576   22.6574   26.3140 C   0  0  2  0  0  0  0  0  0  0  0  0
   10.2451   21.1815   25.8293 C   0  0  0  0  0  0  0  0  0  0  0  0
    9.9101   20.2655   26.5974 O   0  0  0  0  0  0  0  0  0  0  0  0
    8.7338   22.8759   27.1029 C   0  0  1  0  0  0  0  0  0  0  0  0
    8.2236   21.6181   27.8108 C   0  0  0  0  0  0  0  0  0  0  0  0
    8.8363   24.0340   28.1055 C   0  0  0  0  0  0  0  0  0  0  0  0
   10.6892   20.8667   24.5575 N   0  0  0  0  0  0  0  0  0  0  0  0
   10.6167   19.4683   24.0947 C   0  0  2  0  0  0  0  0  0  0  0  0
   11.8268   18.5413   24.3038 C   0  0  0  0  0  0  0  0  0  0  0  0
   12.9414   19.0337   24.4832 O   0  0  0  0  0  0  0  0  0  0  0  0
   10.3722   19.6045   22.5890 C   0  0  0  0  0  0  0  0  0  0  0  0
   11.1239   20.8783   22.2352 C   0  0  0  0  0  0  0  0  0  0  0  0
   10.8442   21.7716   23.4315 C   0  0  0  0  0  0  0  0  0  0  0  0
   11.6259   17.1993   24.4701 N   0  0  0  0  0  0  0  0  0  0  0  0
   12.7591   16.2704   24.6489 C   0  0  2  0  0  0  0  0  0  0  0  0
   12.4449   14.7417   24.7669 C   0  0  0  0  0  0  0  0  0  0  0  0
   12.2402   14.1960   25.8528 O   0  0  0  0  0  0  0  0  0  0  0  0
   13.6564   16.7005   25.8262 C   0  0  0  0  0  0  0  0  0  0  0  0
   14.8604   15.7731   26.0196 C   0  0  0  0  0  0  0  0  0  0  0  0
   16.0042   15.8083   24.5966 S   0  0  0  0  0  0  0  0  0  0  0  0
   15.2956   14.4735   23.6075 C   0  0  0  0  0  0  0  0  0  0  0  0
   12.5817   14.0033   23.6248 N   0  0  0  0  0  0  0  0  0  0  0  0
   11.5524   13.8813   22.5879 C   0  0  2  0  0  0  0  0  0  0  0  0
   12.2711   13.5171   21.2639 C   0  0  0  0  0  0  0  0  0  0  0  0
   11.6709   13.3602   20.2057 O   0  0  0  0  0  0  0  0  0  0  0  0
   10.7239   15.1564   22.3670 C   0  0  0  0  0  0  0  0  0  0  0  0
    9.4022   15.2511   23.1194 C   0  0  0  0  0  0  0  0  0  0  0  0
    8.5938   13.9726   22.8830 C   0  0  0  0  0  0  0  0  0  0  0  0
    8.0199   13.4808   24.1254 N   0  0  0  0  0  0  0  0  0  0  0  0
    6.7773   13.7587   24.5691 C   0  0  0  0  0  0  0  0  0  0  0  0
    5.6793   13.3617   23.9417 N   0  0  0  0  0  4  0  0  0  0  0  0
    6.6577   14.5084   25.6663 N   0  0  0  0  0  0  0  0  0  0  0  0
   13.6376   13.3676   21.3723 N   0  0  0  0  0  0  0  0  0  0  0  0
   14.5642   13.0438   20.2827 C   0  0  2  0  0  0  0  0  0  0  0  0
   15.0255   11.5542   20.3522 C   0  0  0  0  0  0  0  0  0  0  0  0
   14.6704   10.7869   21.2571 O   0  0  0  0  0  0  0  0  0  0  0  0
   15.7364   13.9832   20.1196 C   0  0  0  0  0  0  0  0  0  0  0  0
   15.7397   11.1153   19.2626 N   0  0  0  0  0  0  0  0  0  0  0  0
   16.0718    9.7118   19.0196 C   0  0  2  0  0  0  0  0  0  0  0  0
   17.4976    9.4842   19.5740 C   0  0  0  0  0  0  0  0  0  0  0  0
   18.4654   10.1343   19.1680 O   0  0  0  0  0  0  0  0  0  0  0  0
   16.0314    9.4086   17.5256 C   0  0  0  0  0  0  0  0  0  0  0  0
   14.6291    9.2992   16.9464 C   0  0  0  0  0  0  0  0  0  0  0  0
   14.5905    8.9615   15.4669 C   0  0  0  0  0  0  0  0  0  0  0  0
   14.8323    7.5225   15.2950 N   0  0  0  0  0  0  0  0  0  0  0  0
   14.0216    6.6583   14.6632 C   0  0  0  0  0  0  0  0  0  0  0  0
   14.3363    5.3646   14.4985 N   0  0  0  0  0  4  0  0  0  0  0  0
   12.8590    7.1052   14.1869 N   0  0  0  0  0  0  0  0  0  0  0  0
   17.6384    8.5385   20.5629 N   0  0  0  0  0  0  0  0  0  0  0  0
   18.4750    8.7957   21.7290 C   0  0  2  0  0  0  0  0  0  0  0  0
   18.2415    7.6533   22.7186 C   0  0  0  0  0  0  0  0  0  0  0  0
   17.1158    7.2698   23.0288 O   0  0  0  0  0  0  0  0  0  0  0  0
   18.0897   10.1351   22.3511 C   0  0  0  0  0  0  0  0  0  0  0  0
   19.0495   11.2829   22.0590 C   0  0  0  0  0  0  0  0  0  0  0  0
   19.0255   12.3006   23.1887 C   0  0  0  0  0  0  0  0  0  0  0  0
   18.0533   12.5326   23.9020 O   0  0  0  0  0  0  0  0  0  0  0  0
   20.1662   13.0377   23.3068 N   0  0  0  0  0  0  0  0  0  0  0  0
   19.3919    7.0494   23.1632 N   0  0  0  0  0  0  0  0  0  0  0  0
   19.7603    5.6731   22.8074 C   0  0  2  0  0  0  0  0  0  0  0  0
   21.2083    5.5327   23.3341 C   0  0  0  0  0  0  0  0  0  0  0  0
   22.0087    6.4775   23.2226 O   0  0  0  0  0  0  0  0  0  0  0  0
   19.6358    5.4700   21.2892 C   0  0  0  0  0  0  0  0  0  0  0  0
   19.4807    3.9860   20.8727 C   0  0  1  0  0  0  0  0  0  0  0  0
   20.1030    3.7442   19.4954 C   0  0  0  0  0  0  0  0  0  0  0  0
   20.1175    3.0599   21.8993 C   0  0  0  0  0  0  0  0  0  0  0  0
   21.6048    4.3631   23.9639 N   0  0  0  0  0  0  0  0  0  0  0  0
   20.7292    3.1646   23.9584 C   0  0  2  0  0  0  0  0  0  0  0  0
   19.4881    3.1399   24.8726 C   0  0  0  0  0  0  0  0  0  0  0  0
   18.5260    2.3974   24.6571 O   0  0  0  0  0  0  0  0  0  0  0  0
   21.6665    2.0113   24.3359 C   0  0  0  0  0  0  0  0  0  0  0  0
   23.0146    2.4936   23.8240 C   0  0  0  0  0  0  0  0  0  0  0  0
   22.9915    3.9665   24.1940 C   0  0  0  0  0  0  0  0  0  0  0  0
   19.4516    4.1207   25.8312 N   0  0  0  0  0  0  0  0  0  0  0  0
   18.4345    4.1147   26.8762 C   0  0  2  0  0  0  0  0  0  0  0  0
   18.5196    5.4564   27.6484 C   0  0  0  0  0  0  0  0  0  0  0  0
   19.1471    5.5584   28.7027 O   0  0  0  0  0  0  0  0  0  0  0  0
   18.6892    2.9460   27.8016 C   0  0  0  0  0  0  0  0  0  0  0  0
   17.8608    6.5156   27.0789 N   0  0  0  0  0  0  0  0  0  0  0  0
   18.2077    7.8980   27.3825 C   0  0  2  0  0  0  0  0  0  0  0  0
   19.6446    8.1769   26.9090 C   0  0  0  0  0  0  0  0  0  0  0  0
   19.8626    8.8234   25.8803 O   0  0  0  0  0  0  0  0  0  0  0  0
   18.0345    8.1788   28.8878 C   0  0  0  0  0  0  0  0  0  0  0  0
   17.6636    9.5493   29.0871 O   0  0  0  0  0  0  0  0  0  0  0  0
   20.6314    7.5482   27.6194 N   0  0  0  0  0  0  0  0  0  0  0  0
   20.7353    7.5894   29.0778 C   0  0  2  0  0  0  0  0  0  0  0  0
   22.1889    7.2730   29.4577 C   0  0  0  0  0  0  0  0  0  0  0  0
   22.4812    6.4622   30.3356 O   0  0  0  0  0  0  0  0  0  0  0  0
   19.8386    6.5357   29.7625 C   0  0  0  0  0  0  0  0  0  0  0  0
   20.5673    5.2733   30.1583 C   0  0  0  0  0  0  0  0  0  0  0  0
   21.8417    5.3242   30.7374 C   0  0  0  0  0  0  0  0  0  0  0  0
   19.9702    4.0240   29.9511 C   0  0  0  0  0  0  0  0  0  0  0  0
   22.5060    4.1517   31.0969 C   0  0  0  0  0  0  0  0  0  0  0  0
   20.6367    2.8478   30.3099 C   0  0  0  0  0  0  0  0  0  0  0  0
   21.9037    2.9107   30.8815 C   0  0  0  0  0  0  0  0  0  0  0  0
   23.1147    7.9492   28.7118 N   0  0  0  0  0  0  0  0  0  0  0  0
   23.9020    7.3886   27.6095 C   0  0  2  0  0  0  0  0  0  0  0  0
   23.9704    8.5096   26.5441 C   0  0  0  0  0  0  0  0  0  0  0  0
   23.6334    8.2745   25.3756 O   0  0  0  0  0  0  0  0  0  0  0  0
   23.4122    6.0166   27.1134 C   0  0  0  0  0  0  0  0  0  0  0  0
   23.5092    5.7343   25.6431 C   0  0  0  0  0  0  0  0  0  0  0  0
   22.4836    5.4276   24.7740 C   0  0  0  0  0  0  0  0  0  0  0  0
   24.7091    5.8012   24.8519 C   0  0  0  0  0  0  0  0  0  0  0  0
   22.9882    5.3579   23.5019 N   0  0  0  0  0  0  0  0  0  0  0  0
   24.3389    5.5723   23.5225 C   0  0  0  0  0  0  0  0  0  0  0  0
   26.0642    6.0348   25.1397 C   0  0  0  0  0  0  0  0  0  0  0  0
   25.2571    5.6021   22.4645 C   0  0  0  0  0  0  0  0  0  0  0  0
   27.0044    6.0375   24.0976 C   0  0  0  0  0  0  0  0  0  0  0  0
   26.6014    5.8284   22.7792 C   0  0  0  0  0  0  0  0  0  0  0  0
   24.3168    9.7678   26.9809 N   0  0  0  0  0  0  0  0  0  0  0  0
   25.2648    9.9405   28.0952 C   0  0  2  0  0  0  0  0  0  0  0  0
   24.4447   10.4451   29.3019 C   0  0  0  0  0  0  0  0  0  0  0  0
   23.4250   11.1188   29.1565 O   0  0  0  0  0  0  0  0  0  0  0  0
   26.3563   10.9568   27.7289 C   0  0  0  0  0  0  0  0  0  0  0  0
   25.9503   11.9114   26.5938 C   0  0  0  0  0  0  0  0  0  0  0  0
   26.0108   13.3933   26.9207 C   0  0  0  0  0  0  0  0  0  0  0  0
   26.3771   13.6739   28.0936 O   0  0  0  0  0  1  0  0  0  0  0  0
   25.6667   14.1729   25.9887 O   0  0  0  0  0  0  0  0  0  0  0  0
   24.9784   10.1025   30.5197 N   0  0  0  0  0  0  0  0  0  0  0  0
   24.3175   10.3201   31.7955 C   0  0  2  0  0  0  0  0  0  0  0  0
   24.1511   11.8302   32.1499 C   0  0  0  0  0  0  0  0  0  0  0  0
   25.1018   12.6087   31.9459 O   0  0  0  0  0  0  0  0  0  0  0  0
   24.8385    9.4729   32.9712 C   0  0  0  0  0  0  0  0  0  0  0  0
   24.9885   10.1891   34.3115 C   0  0  0  0  0  0  0  0  0  0  0  0
   26.1765   11.1415   34.4324 C   0  0  0  0  0  0  0  0  0  0  0  0
   27.3117   10.7120   34.1155 O   0  0  0  0  0  1  0  0  0  0  0  0
   25.8733   12.3091   34.8309 O   0  0  0  0  0  0  0  0  0  0  0  0
   22.9642   12.3388   32.6518 N   0  0  0  0  0  0  0  0  0  0  0  0
   22.5503   13.7211   32.9239 C   0  0  2  0  0  0  0  0  0  0  0  0
   22.9374   14.1444   34.3559 C   0  0  0  0  0  0  0  0  0  0  0  0
   23.6144   15.1271   34.6372 O   0  0  0  0  0  0  0  0  0  0  0  0
   21.0244   13.6928   32.8170 C   0  0  0  0  0  0  0  0  0  0  0  0
   20.6594   12.2759   33.2391 C   0  0  0  0  0  0  0  0  0  0  0  0
   21.8489   11.4227   32.8203 C   0  0  0  0  0  0  0  0  0  0  0  0
   22.5644   13.2576   35.3387 N   0  0  0  0  0  0  0  0  0  0  0  0
  1  2  2  0
  1  3  1  0
  1  4  1  0
  5  4  1  6
  5  6  1  0
  5  8  1  0
  6  7  2  0
  6 11  1  0
  8  9  1  1
  8 10  1  0
 11 12  1  0
 11 17  1  0
 12 13  1  6
 12 15  1  0
 13 14  2  0
 13 18  1  0
 15 16  1  0
 16 17  1  0
 18 19  1  0
 19 20  1  0
 19 22  1  1
 20 21  2  0
 20 26  1  0
 22 23  1  0
 23 24  1  0
 24 25  1  0
 26 27  1  0
 27 28  1  0
 27 30  1  6
 28 29  2  0
 28 37  1  0
 30 31  1  0
 31 32  1  0
 32 33  1  0
 33 34  1  0
 34 35  2  0
 34 36  1  0
 37 38  1  0
 38 39  1  0
 38 41  1  1
 39 40  2  0
 39 42  1  0
 42 43  1  0
 43 44  1  0
 43 46  1  6
 44 45  2  0
 44 53  1  0
 46 47  1  0
 47 48  1  0
 48 49  1  0
 49 50  1  0
 50 51  2  0
 50 52  1  0
 53 54  1  0
 54 55  1  0
 54 57  1  1
 55 56  2  0
 55 62  1  0
 57 58  1  0
 58 59  1  0
 59 60  2  0
 59 61  1  0
 62 63  1  0
 63 64  1  0
 63 66  1  6
 64 65  2  0
 64 70  1  0
 66 67  1  0
 67 68  1  6
 67 69  1  0
 70 71  1  0
 70 76  1  0
 71 72  1  1
 71 74  1  0
 72 73  2  0
 72 77  1  0
 74 75  1  0
 75 76  1  0
 77 78  1  0
 78 79  1  0
 78 81  1  1
 79 80  2  0
 79 82  1  0
 82 83  1  0
 83 84  1  0
 83 86  1  1
 84 85  2  0
 84 88  1  0
 86 87  1  0
 88 89  1  0
 89 90  1  0
 89 92  1  1
 90 91  2  0
 90 99  1  0
 92 93  1  0
 93 94  2  0
 93 95  1  0
 94 96  1  0
 95 97  2  0
 96 98  2  0
 97 98  1  0
 99100  1  0
100101  1  0
100103  1  6
101102  2  0
101113  1  0
103104  1  0
104105  2  0
104106  1  0
105107  1  0
106108  2  0
106109  1  0
107108  1  0
108110  1  0
109111  2  0
110112  2  0
111112  1  0
113114  1  0
114115  1  0
114117  1  6
115116  2  0
115122  1  0
117118  1  0
118119  1  0
119120  1  0
119121  2  0
122123  1  0
123124  1  0
123126  1  1
124125  2  0
124131  1  0
126127  1  0
127128  1  0
128129  1  0
128130  2  0
131132  1  0
131137  1  0
132133  1  1
132135  1  0
133134  2  0
133138  1  0
135136  1  0
136137  1  0
M  CHG  4  35   1  51   1 120  -1 129  -1
M  END
$$$$
