
     RDKit          3D

138143  0  0  0  0  0  0  0  0999 V2000
   17.8344   19.3165   36.0770 C   0  0  0  0  0  0  0  0  0  0  0  0
   18.6604   19.8914   35.3754 O   0  0  0  0  0  0  0  0  0  0  0  0
   17.1396   20.0215   37.2116 C   0  0  0  0  0  0  0  0  0  0  0  0
   17.4640   17.9998   35.9167 N   0  0  0  0  0  0  0  0  0  0  0  0
   17.9704   17.1717   34.8164 C   0  0  2  0  0  0  0  0  0  0  0  0
   17.6484   17.6391   33.3582 C   0  0  0  0  0  0  0  0  0  0  0  0
   16.5469   18.1695   33.1427 O   0  0  0  0  0  0  0  0  0  0  0  0
   17.5991   15.6824   35.0746 C   0  0  1  0  0  0  0  0  0  0  0  0
   18.0297   14.7362   33.9509 C   0  0  0  0  0  0  0  0  0  0  0  0
   18.1341   15.1723   36.4202 C   0  0  0  0  0  0  0  0  0  0  0  0
   18.5702   17.5573   32.3299 N   0  0  0  0  0  0  0  0  0  0  0  0
   18.3251   18.3032   31.0816 C   0  0  2  0  0  0  0  0  0  0  0  0
   17.5836   17.6124   29.9239 C   0  0  0  0  0  0  0  0  0  0  0  0
   17.1669   16.4630   30.0734 O   0  0  0  0  0  0  0  0  0  0  0  0
   19.7337   18.6639   30.6007 C   0  0  0  0  0  0  0  0  0  0  0  0
   20.5676   17.4820   31.0700 C   0  0  0  0  0  0  0  0  0  0  0  0
   19.9675   17.1723   32.4307 C   0  0  0  0  0  0  0  0  0  0  0  0
   17.2368   18.3380   28.8184 N   0  0  0  0  0  0  0  0  0  0  0  0
   16.9222   17.6787   27.5356 C   0  0  2  0  0  0  0  0  0  0  0  0
   18.0045   17.7151   26.4056 C   0  0  0  0  0  0  0  0  0  0  0  0
   18.4906   18.7711   25.9966 O   0  0  0  0  0  0  0  0  0  0  0  0
   15.5747   18.1681   26.9692 C   0  0  0  0  0  0  0  0  0  0  0  0
   15.0336   17.2561   25.8636 C   0  0  0  0  0  0  0  0  0  0  0  0
   13.5151   17.9172   25.0942 S   0  0  0  0  0  0  0  0  0  0  0  0
   13.5617   19.6043   25.7374 C   0  0  0  0  0  0  0  0  0  0  0  0
   18.2584   16.5324   25.7691 N   0  0  0  0  0  0  0  0  0  0  0  0
   19.3052   16.3414   24.7607 C   0  0  2  0  0  0  0  0  0  0  0  0
   19.1188   14.9233   24.1638 C   0  0  0  0  0  0  0  0  0  0  0  0
   18.5183   14.0302   24.7525 O   0  0  0  0  0  0  0  0  0  0  0  0
   20.7369   16.4651   25.3049 C   0  0  0  0  0  0  0  0  0  0  0  0
   21.0112   17.6311   26.2468 C   0  0  0  0  0  0  0  0  0  0  0  0
   22.5134   17.9256   26.2618 C   0  0  0  0  0  0  0  0  0  0  0  0
   23.0902   17.6304   27.5639 N   0  0  0  0  0  0  0  0  0  0  0  0
   23.3143   18.5372   28.5363 C   0  0  0  0  0  0  0  0  0  0  0  0
   24.2901   18.4183   29.4255 N   0  0  0  0  0  4  0  0  0  0  0  0
   22.4813   19.5753   28.6281 N   0  0  0  0  0  0  0  0  0  0  0  0
   19.6950   14.7394   22.9246 N   0  0  0  0  0  0  0  0  0  0  0  0
   18.9835   14.5439   21.6572 C   0  0  2  0  0  0  0  0  0  0  0  0
   17.9275   13.3997   21.7684 C   0  0  0  0  0  0  0  0  0  0  0  0
   17.9238   12.5829   22.6992 O   0  0  0  0  0  0  0  0  0  0  0  0
   19.8568   14.3794   20.4351 C   0  0  0  0  0  0  0  0  0  0  0  0
   16.9177   13.4480   20.8368 N   0  0  0  0  0  0  0  0  0  0  0  0
   16.2820   12.2617   20.2643 C   0  0  2  0  0  0  0  0  0  0  0  0
   15.7776   12.6564   18.8565 C   0  0  0  0  0  0  0  0  0  0  0  0
   16.4977   13.2532   18.0507 O   0  0  0  0  0  0  0  0  0  0  0  0
   15.1146   11.8128   21.1369 C   0  0  0  0  0  0  0  0  0  0  0  0
   14.3441   10.6217   20.5877 C   0  0  0  0  0  0  0  0  0  0  0  0
   13.3818    9.9916   21.5783 C   0  0  0  0  0  0  0  0  0  0  0  0
   12.0030   10.2705   21.1543 N   0  0  0  0  0  0  0  0  0  0  0  0
   11.0525   10.8541   21.9020 C   0  0  0  0  0  0  0  0  0  0  0  0
   11.1203   10.9058   23.2409 N   0  0  0  0  0  4  0  0  0  0  0  0
   10.0056   11.4057   21.2872 N   0  0  0  0  0  0  0  0  0  0  0  0
   14.4931   12.2895   18.5289 N   0  0  0  0  0  0  0  0  0  0  0  0
   13.9608   12.5431   17.1953 C   0  0  2  0  0  0  0  0  0  0  0  0
   12.5330   11.9957   17.1627 C   0  0  0  0  0  0  0  0  0  0  0  0
   12.2897   10.7950   17.0658 O   0  0  0  0  0  0  0  0  0  0  0  0
   14.8304   11.8434   16.1545 C   0  0  0  0  0  0  0  0  0  0  0  0
   14.3031   11.9049   14.7255 C   0  0  0  0  0  0  0  0  0  0  0  0
   15.4142   12.2908   13.7616 C   0  0  0  0  0  0  0  0  0  0  0  0
   15.6413   11.7293   12.6935 O   0  0  0  0  0  0  0  0  0  0  0  0
   16.2364   13.2785   14.2164 N   0  0  0  0  0  0  0  0  0  0  0  0
   11.5600   12.9503   17.3297 N   0  0  0  0  0  0  0  0  0  0  0  0
   11.7642   14.3657   16.9964 C   0  0  2  0  0  0  0  0  0  0  0  0
   11.3407   15.1111   18.2843 C   0  0  0  0  0  0  0  0  0  0  0  0
   11.4396   14.5533   19.3911 O   0  0  0  0  0  0  0  0  0  0  0  0
   10.9272   14.7430   15.7640 C   0  0  0  0  0  0  0  0  0  0  0  0
    9.5491   14.0378   15.7107 C   0  0  1  0  0  0  0  0  0  0  0  0
    8.4157   15.0663   15.7205 C   0  0  0  0  0  0  0  0  0  0  0  0
    9.4347   13.1519   14.4780 C   0  0  0  0  0  0  0  0  0  0  0  0
   10.8825   16.4173   18.2085 N   0  0  0  0  0  0  0  0  0  0  0  0
   10.9442   17.3122   19.3911 C   0  0  2  0  0  0  0  0  0  0  0  0
    9.9326   17.1099   20.5368 C   0  0  0  0  0  0  0  0  0  0  0  0
   10.2291   17.3039   21.7191 O   0  0  0  0  0  0  0  0  0  0  0  0
   10.7816   18.7205   18.8069 C   0  0  0  0  0  0  0  0  0  0  0  0
   11.3535   18.5705   17.4060 C   0  0  0  0  0  0  0  0  0  0  0  0
   10.8211   17.2119   16.9846 C   0  0  0  0  0  0  0  0  0  0  0  0
    8.7441   16.5318   20.1686 N   0  0  0  0  0  0  0  0  0  0  0  0
    7.6934   16.2812   21.1483 C   0  0  2  0  0  0  0  0  0  0  0  0
    8.2265   15.2599   22.1858 C   0  0  0  0  0  0  0  0  0  0  0  0
    8.9085   14.2915   21.8502 O   0  0  0  0  0  0  0  0  0  0  0  0
    6.4772   15.7355   20.4342 C   0  0  0  0  0  0  0  0  0  0  0  0
    7.8965   15.5096   23.4931 N   0  0  0  0  0  0  0  0  0  0  0  0
    8.8723   15.4125   24.5710 C   0  0  2  0  0  0  0  0  0  0  0  0
    9.8018   16.6375   24.5267 C   0  0  0  0  0  0  0  0  0  0  0  0
   10.9935   16.5450   24.8349 O   0  0  0  0  0  0  0  0  0  0  0  0
    9.6585   14.0911   24.4684 C   0  0  0  0  0  0  0  0  0  0  0  0
   11.0560   14.3682   24.3078 O   0  0  0  0  0  0  0  0  0  0  0  0
    9.1887   17.8330   24.2640 N   0  0  0  0  0  0  0  0  0  0  0  0
    9.8133   19.1350   24.4961 C   0  0  2  0  0  0  0  0  0  0  0  0
   10.6791   19.0258   25.7595 C   0  0  0  0  0  0  0  0  0  0  0  0
   10.1965   18.9904   26.8906 O   0  0  0  0  0  0  0  0  0  0  0  0
    8.7754   20.2510   24.7420 C   0  0  0  0  0  0  0  0  0  0  0  0
    9.3791   21.5670   25.1723 C   0  0  0  0  0  0  0  0  0  0  0  0
   10.7624   21.7080   25.3419 C   0  0  0  0  0  0  0  0  0  0  0  0
    8.5547   22.6741   25.4068 C   0  0  0  0  0  0  0  0  0  0  0  0
   11.3084   22.9276   25.7415 C   0  0  0  0  0  0  0  0  0  0  0  0
    9.1017   23.8969   25.8094 C   0  0  0  0  0  0  0  0  0  0  0  0
   10.4770   24.0240   25.9776 C   0  0  0  0  0  0  0  0  0  0  0  0
   12.0202   18.9411   25.5046 N   0  0  0  0  0  0  0  0  0  0  0  0
   13.0874   19.5126   26.3315 C   0  0  2  0  0  0  0  0  0  0  0  0
   12.3615   20.2867   27.4586 C   0  0  0  0  0  0  0  0  0  0  0  0
   11.1237   20.3100   27.4955 O   0  0  0  0  0  0  0  0  0  0  0  0
   14.1456   20.3048   25.5435 C   0  0  0  0  0  0  0  0  0  0  0  0
   15.3210   19.5458   25.0020 C   0  0  0  0  0  0  0  0  0  0  0  0
   15.9529   19.7228   23.7893 C   0  0  0  0  0  0  0  0  0  0  0  0
   16.0526   18.5210   25.6983 C   0  0  0  0  0  0  0  0  0  0  0  0
   17.0496   18.9028   23.7386 N   0  0  0  0  0  0  0  0  0  0  0  0
   17.1281   18.1560   24.8817 C   0  0  0  0  0  0  0  0  0  0  0  0
   15.9027   17.8762   26.9375 C   0  0  0  0  0  0  0  0  0  0  0  0
   18.0799   17.2015   25.2642 C   0  0  0  0  0  0  0  0  0  0  0  0
   16.8279   16.8947   27.3253 C   0  0  0  0  0  0  0  0  0  0  0  0
   17.9028   16.5683   26.4992 C   0  0  0  0  0  0  0  0  0  0  0  0
   13.1470   20.8411   28.4432 N   0  0  0  0  0  0  0  0  0  0  0  0
   12.5395   21.3862   29.6695 C   0  0  2  0  0  0  0  0  0  0  0  0
   11.4299   20.3993   30.0919 C   0  0  0  0  0  0  0  0  0  0  0  0
   10.2433   20.7256   30.1064 O   0  0  0  0  0  0  0  0  0  0  0  0
   11.9455   22.7784   29.4105 C   0  0  0  0  0  0  0  0  0  0  0  0
   12.7737   23.6266   28.4311 C   0  0  0  0  0  0  0  0  0  0  0  0
   14.0565   24.2187   28.9881 C   0  0  0  0  0  0  0  0  0  0  0  0
   15.0962   23.9876   28.3140 O   0  0  0  0  0  1  0  0  0  0  0  0
   13.9389   24.8552   30.0724 O   0  0  0  0  0  0  0  0  0  0  0  0
   11.8977   19.1659   30.4728 N   0  0  0  0  0  0  0  0  0  0  0  0
   12.9761   18.9555   31.4239 C   0  0  2  0  0  0  0  0  0  0  0  0
   13.7548   17.6252   31.1833 C   0  0  0  0  0  0  0  0  0  0  0  0
   13.2401   16.5488   31.5410 O   0  0  0  0  0  0  0  0  0  0  0  0
   12.6184   19.1923   32.9029 C   0  0  0  0  0  0  0  0  0  0  0  0
   11.1412   19.4168   33.2179 C   0  0  0  0  0  0  0  0  0  0  0  0
   10.6870   19.0151   34.6197 C   0  0  0  0  0  0  0  0  0  0  0  0
   11.1539   17.9597   35.1115 O   0  0  0  0  0  1  0  0  0  0  0  0
    9.8783   19.8310   35.1622 O   0  0  0  0  0  0  0  0  0  0  0  0
   14.9871   17.6015   30.5507 N   0  0  0  0  0  0  0  0  0  0  0  0
   15.9337   16.5004   30.3323 C   0  0  2  0  0  0  0  0  0  0  0  0
   16.9214   16.3761   31.5107 C   0  0  0  0  0  0  0  0  0  0  0  0
   17.2356   17.2932   32.2613 O   0  0  0  0  0  0  0  0  0  0  0  0
   16.7134   16.9074   29.0804 C   0  0  0  0  0  0  0  0  0  0  0  0
   16.7070   18.4294   29.1305 C   0  0  0  0  0  0  0  0  0  0  0  0
   15.4069   18.7938   29.8340 C   0  0  0  0  0  0  0  0  0  0  0  0
   17.5487   15.1563   31.6095 N   0  0  0  0  0  0  0  0  0  0  0  0
  1  2  2  0
  1  3  1  0
  1  4  1  0
  5  4  1  1
  5  6  1  0
  5  8  1  0
  6  7  2  0
  6 11  1  0
  8  9  1  6
  8 10  1  0
 11 12  1  0
 11 17  1  0
 12 13  1  6
 12 15  1  0
 13 14  2  0
 13 18  1  0
 15 16  1  0
 16 17  1  0
 18 19  1  0
 19 20  1  0
 19 22  1  6
 20 21  2  0
 20 26  1  0
 22 23  1  0
 23 24  1  0
 24 25  1  0
 26 27  1  0
 27 28  1  0
 27 30  1  1
 28 29  2  0
 28 37  1  0
 30 31  1  0
 31 32  1  0
 32 33  1  0
 33 34  1  0
 34 35  2  0
 34 36  1  0
 37 38  1  0
 38 39  1  0
 38 41  1  6
 39 40  2  0
 39 42  1  0
 42 43  1  0
 43 44  1  0
 43 46  1  1
 44 45  2  0
 44 53  1  0
 46 47  1  0
 47 48  1  0
 48 49  1  0
 49 50  1  0
 50 51  2  0
 50 52  1  0
 53 54  1  0
 54 55  1  0
 54 57  1  6
 55 56  2  0
 55 62  1  0
 57 58  1  0
 58 59  1  0
 59 60  2  0
 59 61  1  0
 62 63  1  0
 63 64  1  0
 63 66  1  6
 64 65  2  0
 64 70  1  0
 66 67  1  0
 67 68  1  6
 67 69  1  0
 70 71  1  0
 70 76  1  0
 71 72  1  1
 71 74  1  0
 72 73  2  0
 72 77  1  0
 74 75  1  0
 75 76  1  0
 77 78  1  0
 78 79  1  0
 78 81  1  6
 79 80  2  0
 79 82  1  0
 82 83  1  0
 83 84  1  0
 83 86  1  6
 84 85  2  0
 84 88  1  0
 86 87  1  0
 88 89  1  0
 89 90  1  0
 89 92  1  1
 90 91  2  0
 90 99  1  0
 92 93  1  0
 93 94  2  0
 93 95  1  0
 94 96  1  0
 95 97  2  0
 96 98  2  0
 97 98  1  0
 99100  1  0
100101  1  0
100103  1  6
101102  2  0
101113  1  0
103104  1  0
104105  2  0
104106  1  0
105107  1  0
106108  2  0
106109  1  0
107108  1  0
108110  1  0
109111  2  0
110112  2  0
111112  1  0
113114  1  0
114115  1  0
114117  1  6
115116  2  0
115122  1  0
117118  1  0
118119  1  0
119120  1  0
119121  2  0
122123  1  0
123124  1  0
123126  1  1
124125  2  0
124131  1  0
126127  1  0
127128  1  0
128129  1  0
128130  2  0
131132  1  0
131137  1  0
132133  1  1
132135  1  0
133134  2  0
133138  1  0
135136  1  0
136137  1  0
M  CHG  4  35   1  51   1 120  -1 129  -1
M  END
$$$$
