
     RDKit          3D

138143  0  0  0  0  0  0  0  0999 V2000
    6.8501   15.5670   40.9649 C   0  0  0  0  0  0  0  0  0  0  0  0
    5.8500   15.9190   40.3477 O   0  0  0  0  0  0  0  0  0  0  0  0
    6.8425   15.4345   42.4647 C   0  0  0  0  0  0  0  0  0  0  0  0
    8.0586   15.2680   40.3760 N   0  0  0  0  0  0  0  0  0  0  0  0
    8.7442   13.9901   40.5989 C   0  0  2  0  0  0  0  0  0  0  0  0
   10.1263   13.7837   39.8951 C   0  0  0  0  0  0  0  0  0  0  0  0
   10.1682   13.8475   38.6560 O   0  0  0  0  0  0  0  0  0  0  0  0
    7.7515   12.8180   40.3472 C   0  0  1  0  0  0  0  0  0  0  0  0
    7.1701   12.7961   38.9312 C   0  0  0  0  0  0  0  0  0  0  0  0
    8.3657   11.4511   40.6806 C   0  0  0  0  0  0  0  0  0  0  0  0
   11.3037   13.6164   40.6019 N   0  0  0  0  0  0  0  0  0  0  0  0
   12.5921   13.7463   39.8964 C   0  0  2  0  0  0  0  0  0  0  0  0
   13.2528   12.4930   39.2964 C   0  0  0  0  0  0  0  0  0  0  0  0
   13.4091   11.4956   40.0021 O   0  0  0  0  0  0  0  0  0  0  0  0
   13.5279   14.3149   40.9672 C   0  0  0  0  0  0  0  0  0  0  0  0
   12.9950   13.6953   42.2498 C   0  0  0  0  0  0  0  0  0  0  0  0
   11.4914   13.7356   42.0376 C   0  0  0  0  0  0  0  0  0  0  0  0
   13.4900   12.4355   37.9513 N   0  0  0  0  0  0  0  0  0  0  0  0
   14.2545   11.3231   37.3539 C   0  0  2  0  0  0  0  0  0  0  0  0
   15.5522   10.8457   38.0873 C   0  0  0  0  0  0  0  0  0  0  0  0
   15.9336   11.3541   39.1431 O   0  0  0  0  0  0  0  0  0  0  0  0
   14.5760   11.5961   35.8712 C   0  0  0  0  0  0  0  0  0  0  0  0
   13.3168   11.7129   35.0065 C   0  0  0  0  0  0  0  0  0  0  0  0
   13.3201   13.2148   33.9678 S   0  0  0  0  0  0  0  0  0  0  0  0
   14.1482   14.3582   35.0943 C   0  0  0  0  0  0  0  0  0  0  0  0
   16.3400    9.9566   37.4112 N   0  0  0  0  0  0  0  0  0  0  0  0
   17.0044    8.8031   38.0257 C   0  0  2  0  0  0  0  0  0  0  0  0
   17.5607    7.9241   36.8768 C   0  0  0  0  0  0  0  0  0  0  0  0
   17.4335    6.7042   36.8546 O   0  0  0  0  0  0  0  0  0  0  0  0
   16.0873    7.9422   38.9083 C   0  0  0  0  0  0  0  0  0  0  0  0
   16.5501    6.5178   39.1889 C   0  0  0  0  0  0  0  0  0  0  0  0
   18.0474    6.5269   39.5080 C   0  0  0  0  0  0  0  0  0  0  0  0
   18.5713    7.8835   39.5148 N   0  0  0  0  0  0  0  0  0  0  0  0
   19.8064    8.2358   39.9257 C   0  0  0  0  0  0  0  0  0  0  0  0
   20.8559    7.4312   39.8351 N   0  0  0  0  0  4  0  0  0  0  0  0
   19.9597    9.4345   40.4909 N   0  0  0  0  0  0  0  0  0  0  0  0
   18.2243    8.6199   35.8885 N   0  0  0  0  0  0  0  0  0  0  0  0
   18.8337    8.0471   34.6837 C   0  0  2  0  0  0  0  0  0  0  0  0
   20.3224    8.4914   34.5333 C   0  0  0  0  0  0  0  0  0  0  0  0
   20.6791    9.6737   34.6268 O   0  0  0  0  0  0  0  0  0  0  0  0
   18.0602    8.2466   33.4011 C   0  0  0  0  0  0  0  0  0  0  0  0
   21.2285    7.4627   34.4298 N   0  0  0  0  0  0  0  0  0  0  0  0
   22.6783    7.6548   34.4094 C   0  0  2  0  0  0  0  0  0  0  0  0
   23.0260    8.3131   33.0537 C   0  0  0  0  0  0  0  0  0  0  0  0
   24.1311    8.8206   32.8410 O   0  0  0  0  0  0  0  0  0  0  0  0
   23.3926    6.3143   34.5443 C   0  0  0  0  0  0  0  0  0  0  0  0
   22.5257    5.1962   35.1032 C   0  0  0  0  0  0  0  0  0  0  0  0
   23.2656    4.2264   36.0068 C   0  0  0  0  0  0  0  0  0  0  0  0
   23.1838    4.7030   37.3942 N   0  0  0  0  0  0  0  0  0  0  0  0
   22.7621    3.9867   38.4488 C   0  0  0  0  0  0  0  0  0  0  0  0
   22.4056    2.6973   38.3474 N   0  0  0  0  0  4  0  0  0  0  0  0
   22.7008    4.5812   39.6409 N   0  0  0  0  0  0  0  0  0  0  0  0
   22.0546    8.2866   32.0803 N   0  0  0  0  0  0  0  0  0  0  0  0
   22.3040    8.8532   30.7602 C   0  0  2  0  0  0  0  0  0  0  0  0
   21.0337    8.6552   29.9317 C   0  0  0  0  0  0  0  0  0  0  0  0
   20.1552    7.8580   30.2526 O   0  0  0  0  0  0  0  0  0  0  0  0
   23.4873    8.1404   30.1115 C   0  0  0  0  0  0  0  0  0  0  0  0
   24.2940    8.9869   29.1333 C   0  0  0  0  0  0  0  0  0  0  0  0
   23.5430    9.1490   27.8210 C   0  0  0  0  0  0  0  0  0  0  0  0
   23.7376    8.4730   26.8145 O   0  0  0  0  0  0  0  0  0  0  0  0
   22.6695   10.1952   27.7976 N   0  0  0  0  0  0  0  0  0  0  0  0
   20.9289    9.4971   28.8518 N   0  0  0  0  0  0  0  0  0  0  0  0
   20.3695   10.8515   28.9464 C   0  0  2  0  0  0  0  0  0  0  0  0
   19.6797   11.0604   27.5773 C   0  0  0  0  0  0  0  0  0  0  0  0
   19.3375   12.2000   27.2168 O   0  0  0  0  0  0  0  0  0  0  0  0
   21.4886   11.8652   29.2322 C   0  0  0  0  0  0  0  0  0  0  0  0
   20.9712   13.2994   29.5060 C   0  0  1  0  0  0  0  0  0  0  0  0
   20.6522   14.0178   28.1927 C   0  0  0  0  0  0  0  0  0  0  0  0
   19.7373   13.2755   30.3970 C   0  0  0  0  0  0  0  0  0  0  0  0
   19.4741    9.9792   26.7343 N   0  0  0  0  0  0  0  0  0  0  0  0
   19.8344   10.0595   25.2967 C   0  0  2  0  0  0  0  0  0  0  0  0
   18.9342   10.8702   24.3432 C   0  0  0  0  0  0  0  0  0  0  0  0
   17.7255   11.0176   24.5448 O   0  0  0  0  0  0  0  0  0  0  0  0
   19.8811    8.5972   24.8376 C   0  0  0  0  0  0  0  0  0  0  0  0
   20.2572    7.8576   26.1118 C   0  0  0  0  0  0  0  0  0  0  0  0
   19.4323    8.5830   27.1607 C   0  0  0  0  0  0  0  0  0  0  0  0
   19.5309   11.2616   23.1714 N   0  0  0  0  0  0  0  0  0  0  0  0
   18.8177   12.0846   22.2017 C   0  0  2  0  0  0  0  0  0  0  0  0
   17.7000   11.2238   21.5587 C   0  0  0  0  0  0  0  0  0  0  0  0
   17.7216    9.9938   21.6056 O   0  0  0  0  0  0  0  0  0  0  0  0
   19.7955   12.5648   21.1527 C   0  0  0  0  0  0  0  0  0  0  0  0
   16.6894   11.9190   20.9458 N   0  0  0  0  0  0  0  0  0  0  0  0
   15.4835   11.2632   20.4564 C   0  0  2  0  0  0  0  0  0  0  0  0
   15.0496   11.9190   19.1341 C   0  0  0  0  0  0  0  0  0  0  0  0
   14.9527   13.1453   19.0324 O   0  0  0  0  0  0  0  0  0  0  0  0
   14.3692   11.3219   21.5192 C   0  0  0  0  0  0  0  0  0  0  0  0
   13.1631   10.7547   20.9908 O   0  0  0  0  0  0  0  0  0  0  0  0
   14.6528   11.0540   18.1501 N   0  0  0  0  0  0  0  0  0  0  0  0
   14.0969   11.4826   16.8668 C   0  0  2  0  0  0  0  0  0  0  0  0
   14.4122   12.9749   16.6895 C   0  0  0  0  0  0  0  0  0  0  0  0
   15.4046   13.5045   17.1877 O   0  0  0  0  0  0  0  0  0  0  0  0
   12.5625   11.3239   16.8067 C   0  0  0  0  0  0  0  0  0  0  0  0
   12.0368   10.9512   15.4407 C   0  0  0  0  0  0  0  0  0  0  0  0
   11.6842    9.6302   15.1362 C   0  0  0  0  0  0  0  0  0  0  0  0
   11.8919   11.9325   14.4526 C   0  0  0  0  0  0  0  0  0  0  0  0
   11.2018    9.2973   13.8706 C   0  0  0  0  0  0  0  0  0  0  0  0
   11.4099   11.5990   13.1827 C   0  0  0  0  0  0  0  0  0  0  0  0
   11.0658   10.2828   12.8909 C   0  0  0  0  0  0  0  0  0  0  0  0
   13.5095   13.6412   15.9072 N   0  0  0  0  0  0  0  0  0  0  0  0
   12.8639   14.9149   16.2390 C   0  0  2  0  0  0  0  0  0  0  0  0
   11.3634   14.5787   16.4175 C   0  0  0  0  0  0  0  0  0  0  0  0
   10.6141   14.5495   15.4317 O   0  0  0  0  0  0  0  0  0  0  0  0
   13.1861   16.0623   15.2654 C   0  0  0  0  0  0  0  0  0  0  0  0
   12.0575   16.9602   14.8520 C   0  0  0  0  0  0  0  0  0  0  0  0
   12.1380   18.1576   14.1729 C   0  0  0  0  0  0  0  0  0  0  0  0
   10.6567   16.6894   15.0381 C   0  0  0  0  0  0  0  0  0  0  0  0
   10.8691   18.5945   13.8954 N   0  0  0  0  0  0  0  0  0  0  0  0
    9.9510   17.7255   14.4174 C   0  0  0  0  0  0  0  0  0  0  0  0
    9.9290   15.6671   15.6700 C   0  0  0  0  0  0  0  0  0  0  0  0
    8.5512   17.7662   14.3694 C   0  0  0  0  0  0  0  0  0  0  0  0
    8.5260   15.7063   15.6601 C   0  0  0  0  0  0  0  0  0  0  0  0
    7.8506   16.7406   15.0135 C   0  0  0  0  0  0  0  0  0  0  0  0
   10.9476   14.2236   17.6804 N   0  0  0  0  0  0  0  0  0  0  0  0
   11.6632   14.7134   18.8712 C   0  0  2  0  0  0  0  0  0  0  0  0
   11.4654   13.6529   19.9756 C   0  0  0  0  0  0  0  0  0  0  0  0
   12.3263   12.8101   20.2267 O   0  0  0  0  0  0  0  0  0  0  0  0
   11.1010   16.0684   19.3252 C   0  0  0  0  0  0  0  0  0  0  0  0
   10.4525   16.8760   18.1887 C   0  0  0  0  0  0  0  0  0  0  0  0
   10.6024   18.3846   18.2785 C   0  0  0  0  0  0  0  0  0  0  0  0
   11.7421   18.7951   18.6267 O   0  0  0  0  0  1  0  0  0  0  0  0
    9.5640   19.0535   18.0158 O   0  0  0  0  0  0  0  0  0  0  0  0
   10.2474   13.7259   20.6052 N   0  0  0  0  0  0  0  0  0  0  0  0
    9.9583   14.5940   21.7342 C   0  0  2  0  0  0  0  0  0  0  0  0
   10.1955   16.1041   21.4228 C   0  0  0  0  0  0  0  0  0  0  0  0
    9.4996   16.9590   22.0029 O   0  0  0  0  0  0  0  0  0  0  0  0
   10.5484   14.1513   23.0859 C   0  0  0  0  0  0  0  0  0  0  0  0
    9.6232   14.2493   24.2968 C   0  0  0  0  0  0  0  0  0  0  0  0
    8.5139   15.2955   24.2088 C   0  0  0  0  0  0  0  0  0  0  0  0
    8.7034   16.2962   23.4764 O   0  0  0  0  0  1  0  0  0  0  0  0
    7.4777   15.0188   24.8898 O   0  0  0  0  0  0  0  0  0  0  0  0
   11.1822   16.5255   20.5463 N   0  0  0  0  0  0  0  0  0  0  0  0
   12.6441   16.5430   20.6821 C   0  0  2  0  0  0  0  0  0  0  0  0
   13.1265   17.8630   21.3180 C   0  0  0  0  0  0  0  0  0  0  0  0
   12.3923   18.7140   21.8080 O   0  0  0  0  0  0  0  0  0  0  0  0
   13.1638   16.4730   19.2447 C   0  0  0  0  0  0  0  0  0  0  0  0
   12.0731   17.1591   18.4331 C   0  0  0  0  0  0  0  0  0  0  0  0
   10.7843   16.8837   19.1954 C   0  0  0  0  0  0  0  0  0  0  0  0
   14.4757   18.1004   21.1977 N   0  0  0  0  0  0  0  0  0  0  0  0
  1  2  2  0
  1  3  1  0
  1  4  1  0
  5  4  1  6
  5  6  1  0
  5  8  1  0
  6  7  2  0
  6 11  1  0
  8  9  1  6
  8 10  1  0
 11 12  1  0
 11 17  1  0
 12 13  1  1
 12 15  1  0
 13 14  2  0
 13 18  1  0
 15 16  1  0
 16 17  1  0
 18 19  1  0
 19 20  1  0
 19 22  1  6
 20 21  2  0
 20 26  1  0
 22 23  1  0
 23 24  1  0
 24 25  1  0
 26 27  1  0
 27 28  1  0
 27 30  1  6
 28 29  2  0
 28 37  1  0
 30 31  1  0
 31 32  1  0
 32 33  1  0
 33 34  1  0
 34 35  2  0
 34 36  1  0
 37 38  1  0
 38 39  1  0
 38 41  1  6
 39 40  2  0
 39 42  1  0
 42 43  1  0
 43 44  1  0
 43 46  1  6
 44 45  2  0
 44 53  1  0
 46 47  1  0
 47 48  1  0
 48 49  1  0
 49 50  1  0
 50 51  2  0
 50 52  1  0
 53 54  1  0
 54 55  1  0
 54 57  1  6
 55 56  2  0
 55 62  1  0
 57 58  1  0
 58 59  1  0
 59 60  2  0
 59 61  1  0
 62 63  1  0
 63 64  1  0
 63 66  1  6
 64 65  2  0
 64 70  1  0
 66 67  1  0
 67 68  1  6
 67 69  1  0
 70 71  1  0
 70 76  1  0
 71 72  1  6
 71 74  1  0
 72 73  2  0
 72 77  1  0
 74 75  1  0
 75 76  1  0
 77 78  1  0
 78 79  1  0
 78 81  1  6
 79 80  2  0
 79 82  1  0
 82 83  1  0
 83 84  1  0
 83 86  1  1
 84 85  2  0
 84 88  1  0
 86 87  1  0
 88 89  1  0
 89 90  1  0
 89 92  1  1
 90 91  2  0
 90 99  1  0
 92 93  1  0
 93 94  2  0
 93 95  1  0
 94 96  1  0
 95 97  2  0
 96 98  2  0
 97 98  1  0
 99100  1  0
100101  1  0
100103  1  6
101102  2  0
101113  1  0
103104  1  0
104105  2  0
104106  1  0
105107  1  0
106108  2  0
106109  1  0
107108  1  0
108110  1  0
109111  2  0
110112  2  0
111112  1  0
113114  1  0
114115  1  0
114117  1  1
115116  2  0
115122  1  0
117118  1  0
118119  1  0
119120  1  0
119121  2  0
122123  1  0
123124  1  0
123126  1  1
124125  2  0
124131  1  0
126127  1  0
127128  1  0
128129  1  0
128130  2  0
131132  1  0
131137  1  0
132133  1  6
132135  1  0
133134  2  0
133138  1  0
135136  1  0
136137  1  0
M  CHG  4  35   1  51   1 120  -1 129  -1
M  END
$$$$
