
     RDKit          3D

138143  0  0  0  0  0  0  0  0999 V2000
   24.5917    5.2518   26.0313 C   0  0  0  0  0  0  0  0  0  0  0  0
   24.9992    4.4475   26.8633 O   0  0  0  0  0  0  0  0  0  0  0  0
   23.5210    4.8824   25.0392 C   0  0  0  0  0  0  0  0  0  0  0  0
   25.0567    6.5423   25.9088 N   0  0  0  0  0  0  0  0  0  0  0  0
   24.2910    7.5893   25.2229 C   0  0  2  0  0  0  0  0  0  0  0  0
   24.9418    9.0089   25.1263 C   0  0  0  0  0  0  0  0  0  0  0  0
   25.4343    9.4990   26.1552 O   0  0  0  0  0  0  0  0  0  0  0  0
   22.8392    7.6216   25.7831 C   0  0  1  0  0  0  0  0  0  0  0  0
   21.9810    8.7503   25.2060 C   0  0  0  0  0  0  0  0  0  0  0  0
   22.1176    6.2774   25.6122 C   0  0  0  0  0  0  0  0  0  0  0  0
   25.0592    9.6939   23.9301 N   0  0  0  0  0  0  0  0  0  0  0  0
   25.7775   10.9816   23.9049 C   0  0  2  0  0  0  0  0  0  0  0  0
   24.9900   12.2882   24.1047 C   0  0  0  0  0  0  0  0  0  0  0  0
   25.5855   13.3655   24.0603 O   0  0  0  0  0  0  0  0  0  0  0  0
   26.4065   11.0103   22.5087 C   0  0  0  0  0  0  0  0  0  0  0  0
   25.3893   10.2627   21.6608 C   0  0  0  0  0  0  0  0  0  0  0  0
   24.9391    9.1479   22.5892 C   0  0  0  0  0  0  0  0  0  0  0  0
   23.6240   12.2514   24.1456 N   0  0  0  0  0  0  0  0  0  0  0  0
   22.8317   13.4660   24.4214 C   0  0  2  0  0  0  0  0  0  0  0  0
   21.8002   13.4194   25.5976 C   0  0  0  0  0  0  0  0  0  0  0  0
   21.1662   12.3995   25.8739 O   0  0  0  0  0  0  0  0  0  0  0  0
   22.1323   13.9805   23.1477 C   0  0  0  0  0  0  0  0  0  0  0  0
   20.7873   14.6515   23.4437 C   0  0  0  0  0  0  0  0  0  0  0  0
   19.7548   14.8348   21.9487 S   0  0  0  0  0  0  0  0  0  0  0  0
   20.2291   16.5072   21.4583 C   0  0  0  0  0  0  0  0  0  0  0  0
   21.5046   14.6132   26.1941 N   0  0  0  0  0  0  0  0  0  0  0  0
   21.6676   14.8881   27.6249 C   0  0  2  0  0  0  0  0  0  0  0  0
   20.5607   15.8939   28.0314 C   0  0  0  0  0  0  0  0  0  0  0  0
   20.5951   16.5289   29.0803 O   0  0  0  0  0  0  0  0  0  0  0  0
   23.0354   15.4776   28.0031 C   0  0  0  0  0  0  0  0  0  0  0  0
   23.4195   15.4215   29.4766 C   0  0  0  0  0  0  0  0  0  0  0  0
   24.8257   15.9999   29.6543 C   0  0  0  0  0  0  0  0  0  0  0  0
   25.8344   15.0869   29.1405 N   0  0  0  0  0  0  0  0  0  0  0  0
   26.5332   14.2054   29.8839 C   0  0  0  0  0  0  0  0  0  0  0  0
   25.9632   13.3668   30.7375 N   0  0  0  0  0  4  0  0  0  0  0  0
   27.8635   14.2174   29.7828 N   0  0  0  0  0  0  0  0  0  0  0  0
   19.5253   16.0073   27.1278 N   0  0  0  0  0  0  0  0  0  0  0  0
   18.1173   16.2626   27.4491 C   0  0  2  0  0  0  0  0  0  0  0  0
   17.2188   16.1773   26.1755 C   0  0  0  0  0  0  0  0  0  0  0  0
   17.5338   16.7039   25.0998 O   0  0  0  0  0  0  0  0  0  0  0  0
   17.8444   17.5205   28.2405 C   0  0  0  0  0  0  0  0  0  0  0  0
   16.1210   15.3580   26.2923 N   0  0  0  0  0  0  0  0  0  0  0  0
   15.1834   15.0943   25.2012 C   0  0  2  0  0  0  0  0  0  0  0  0
   13.7713   15.4432   25.7270 C   0  0  0  0  0  0  0  0  0  0  0  0
   13.1800   14.7198   26.5338 O   0  0  0  0  0  0  0  0  0  0  0  0
   15.2466   13.6269   24.7912 C   0  0  0  0  0  0  0  0  0  0  0  0
   16.4956   13.2482   24.0098 C   0  0  0  0  0  0  0  0  0  0  0  0
   17.6060   12.6559   24.8587 C   0  0  0  0  0  0  0  0  0  0  0  0
   18.7658   12.3700   24.0032 N   0  0  0  0  0  0  0  0  0  0  0  0
   19.8711   11.7031   24.3729 C   0  0  0  0  0  0  0  0  0  0  0  0
   21.0774   12.2869   24.4355 N   0  0  0  0  0  4  0  0  0  0  0  0
   19.7611   10.4133   24.6934 N   0  0  0  0  0  0  0  0  0  0  0  0
   13.2092   16.6141   25.2742 N   0  0  0  0  0  0  0  0  0  0  0  0
   12.6252   17.5717   26.2059 C   0  0  2  0  0  0  0  0  0  0  0  0
   12.1202   18.7581   25.3834 C   0  0  0  0  0  0  0  0  0  0  0  0
   12.2552   19.9221   25.7540 O   0  0  0  0  0  0  0  0  0  0  0  0
   13.6838   18.0224   27.2086 C   0  0  0  0  0  0  0  0  0  0  0  0
   13.8738   19.5314   27.3127 C   0  0  0  0  0  0  0  0  0  0  0  0
   12.7063   20.1677   28.0506 C   0  0  0  0  0  0  0  0  0  0  0  0
   12.6517   20.3319   29.2663 O   0  0  0  0  0  0  0  0  0  0  0  0
   11.6389   20.4727   27.2594 N   0  0  0  0  0  0  0  0  0  0  0  0
   11.5793   18.4122   24.1694 N   0  0  0  0  0  0  0  0  0  0  0  0
   12.0116   19.0144   22.9019 C   0  0  2  0  0  0  0  0  0  0  0  0
   10.7732   19.8155   22.4347 C   0  0  0  0  0  0  0  0  0  0  0  0
    9.6362   19.4892   22.8178 O   0  0  0  0  0  0  0  0  0  0  0  0
   12.4413   17.9164   21.9162 C   0  0  0  0  0  0  0  0  0  0  0  0
   13.5655   17.0000   22.4602 C   0  0  1  0  0  0  0  0  0  0  0  0
   13.3156   15.5439   22.0604 C   0  0  0  0  0  0  0  0  0  0  0  0
   14.9299   17.4492   21.9564 C   0  0  0  0  0  0  0  0  0  0  0  0
   10.9339   20.9219   21.6150 N   0  0  0  0  0  0  0  0  0  0  0  0
    9.7596   21.7137   21.1712 C   0  0  2  0  0  0  0  0  0  0  0  0
    8.8387   21.1383   20.0769 C   0  0  0  0  0  0  0  0  0  0  0  0
    7.9203   21.7941   19.5770 O   0  0  0  0  0  0  0  0  0  0  0  0
   10.3595   23.0404   20.6905 C   0  0  0  0  0  0  0  0  0  0  0  0
   11.6192   23.1637   21.5331 C   0  0  0  0  0  0  0  0  0  0  0  0
   12.1428   21.7380   21.5400 C   0  0  0  0  0  0  0  0  0  0  0  0
    8.9969   19.7984   19.8282 N   0  0  0  0  0  0  0  0  0  0  0  0
    8.1259   19.0985   18.8912 C   0  0  2  0  0  0  0  0  0  0  0  0
    7.5181   17.8692   19.6142 C   0  0  0  0  0  0  0  0  0  0  0  0
    6.5209   17.9659   20.3296 O   0  0  0  0  0  0  0  0  0  0  0  0
    8.9410   18.6672   17.6926 C   0  0  0  0  0  0  0  0  0  0  0  0
    8.1561   16.6746   19.3992 N   0  0  0  0  0  0  0  0  0  0  0  0
    7.8830   15.8496   18.2294 C   0  0  2  0  0  0  0  0  0  0  0  0
    8.7437   14.5761   18.2937 C   0  0  0  0  0  0  0  0  0  0  0  0
    9.0376   13.9530   17.2696 O   0  0  0  0  0  0  0  0  0  0  0  0
    8.1352   16.6485   16.9360 C   0  0  0  0  0  0  0  0  0  0  0  0
    6.9852   16.5689   16.0835 O   0  0  0  0  0  0  0  0  0  0  0  0
    9.0298   14.1215   19.5529 N   0  0  0  0  0  0  0  0  0  0  0  0
   10.1851   14.5633   20.3335 C   0  0  2  0  0  0  0  0  0  0  0  0
    9.6792   15.0233   21.7083 C   0  0  0  0  0  0  0  0  0  0  0  0
    9.1884   16.1361   21.8936 O   0  0  0  0  0  0  0  0  0  0  0  0
   10.9122   15.7603   19.6842 C   0  0  0  0  0  0  0  0  0  0  0  0
   12.4177   15.6383   19.6852 C   0  0  0  0  0  0  0  0  0  0  0  0
   13.1702   15.9698   20.8192 C   0  0  0  0  0  0  0  0  0  0  0  0
   13.0859   15.1852   18.5413 C   0  0  0  0  0  0  0  0  0  0  0  0
   14.5602   15.8551   20.8078 C   0  0  0  0  0  0  0  0  0  0  0  0
   14.4799   15.0717   18.5288 C   0  0  0  0  0  0  0  0  0  0  0  0
   15.2171   15.4069   19.6602 C   0  0  0  0  0  0  0  0  0  0  0  0
    9.7976   14.0746   22.6864 N   0  0  0  0  0  0  0  0  0  0  0  0
    9.8414   12.6248   22.4732 C   0  0  2  0  0  0  0  0  0  0  0  0
    9.0377   12.0143   23.6470 C   0  0  0  0  0  0  0  0  0  0  0  0
    9.5544   11.1489   24.3670 O   0  0  0  0  0  0  0  0  0  0  0  0
   11.2555   12.0574   22.2577 C   0  0  0  0  0  0  0  0  0  0  0  0
   12.4173   12.9094   22.6768 C   0  0  0  0  0  0  0  0  0  0  0  0
   13.0721   13.8676   21.9323 C   0  0  0  0  0  0  0  0  0  0  0  0
   13.0225   12.9218   23.9821 C   0  0  0  0  0  0  0  0  0  0  0  0
   13.9981   14.4893   22.7284 N   0  0  0  0  0  0  0  0  0  0  0  0
   13.9943   13.9280   23.9756 C   0  0  0  0  0  0  0  0  0  0  0  0
   12.8349   12.1784   25.1594 C   0  0  0  0  0  0  0  0  0  0  0  0
   14.7614   14.2476   25.1038 C   0  0  0  0  0  0  0  0  0  0  0  0
   13.6153   12.4623   26.2908 C   0  0  0  0  0  0  0  0  0  0  0  0
   14.5608   13.4867   26.2607 C   0  0  0  0  0  0  0  0  0  0  0  0
    7.7943   12.5477   23.8985 N   0  0  0  0  0  0  0  0  0  0  0  0
    7.5337   13.2882   25.1450 C   0  0  2  0  0  0  0  0  0  0  0  0
    8.7888   13.1250   26.0291 C   0  0  0  0  0  0  0  0  0  0  0  0
    9.2237   12.0162   26.3390 O   0  0  0  0  0  0  0  0  0  0  0  0
    6.2979   12.7270   25.8634 C   0  0  0  0  0  0  0  0  0  0  0  0
    6.6224   11.5888   26.8450 C   0  0  0  0  0  0  0  0  0  0  0  0
    7.3581   10.3969   26.2580 C   0  0  0  0  0  0  0  0  0  0  0  0
    8.3611   10.0044   26.9128 O   0  0  0  0  0  1  0  0  0  0  0  0
    6.8951    9.9499   25.1715 O   0  0  0  0  0  0  0  0  0  0  0  0
    9.3312   14.3140   26.4500 N   0  0  0  0  0  0  0  0  0  0  0  0
    9.7498   14.5873   27.8145 C   0  0  2  0  0  0  0  0  0  0  0  0
    9.0184   15.8119   28.4464 C   0  0  0  0  0  0  0  0  0  0  0  0
    8.8467   16.8361   27.7585 O   0  0  0  0  0  0  0  0  0  0  0  0
   11.2702   14.5943   28.0586 C   0  0  0  0  0  0  0  0  0  0  0  0
   11.8698   13.3209   28.6509 C   0  0  0  0  0  0  0  0  0  0  0  0
   10.8706   12.2575   29.1022 C   0  0  0  0  0  0  0  0  0  0  0  0
   11.0741   11.0702   28.7521 O   0  0  0  0  0  1  0  0  0  0  0  0
    9.9248   12.7007   29.8254 O   0  0  0  0  0  0  0  0  0  0  0  0
    8.5218   15.7820   29.7394 N   0  0  0  0  0  0  0  0  0  0  0  0
    7.6927   16.7469   30.4725 C   0  0  2  0  0  0  0  0  0  0  0  0
    8.5667   17.7895   31.1996 C   0  0  0  0  0  0  0  0  0  0  0  0
    9.7671   17.6679   31.4175 O   0  0  0  0  0  0  0  0  0  0  0  0
    6.9603   15.9057   31.5199 C   0  0  0  0  0  0  0  0  0  0  0  0
    7.9272   14.7645   31.8063 C   0  0  0  0  0  0  0  0  0  0  0  0
    8.6865   14.5568   30.5030 C   0  0  0  0  0  0  0  0  0  0  0  0
    7.8752   18.8599   31.7168 N   0  0  0  0  0  0  0  0  0  0  0  0
  1  2  2  0
  1  3  1  0
  1  4  1  0
  5  4  1  1
  5  6  1  0
  5  8  1  0
  6  7  2  0
  6 11  1  0
  8  9  1  6
  8 10  1  0
 11 12  1  0
 11 17  1  0
 12 13  1  6
 12 15  1  0
 13 14  2  0
 13 18  1  0
 15 16  1  0
 16 17  1  0
 18 19  1  0
 19 20  1  0
 19 22  1  6
 20 21  2  0
 20 26  1  0
 22 23  1  0
 23 24  1  0
 24 25  1  0
 26 27  1  0
 27 28  1  0
 27 30  1  6
 28 29  2  0
 28 37  1  0
 30 31  1  0
 31 32  1  0
 32 33  1  0
 33 34  1  0
 34 35  2  0
 34 36  1  0
 37 38  1  0
 38 39  1  0
 38 41  1  6
 39 40  2  0
 39 42  1  0
 42 43  1  0
 43 44  1  0
 43 46  1  1
 44 45  2  0
 44 53  1  0
 46 47  1  0
 47 48  1  0
 48 49  1  0
 49 50  1  0
 50 51  2  0
 50 52  1  0
 53 54  1  0
 54 55  1  0
 54 57  1  1
 55 56  2  0
 55 62  1  0
 57 58  1  0
 58 59  1  0
 59 60  2  0
 59 61  1  0
 62 63  1  0
 63 64  1  0
 63 66  1  6
 64 65  2  0
 64 70  1  0
 66 67  1  0
 67 68  1  6
 67 69  1  0
 70 71  1  0
 70 76  1  0
 71 72  1  6
 71 74  1  0
 72 73  2  0
 72 77  1  0
 74 75  1  0
 75 76  1  0
 77 78  1  0
 78 79  1  0
 78 81  1  6
 79 80  2  0
 79 82  1  0
 82 83  1  0
 83 84  1  0
 83 86  1  6
 84 85  2  0
 84 88  1  0
 86 87  1  0
 88 89  1  0
 89 90  1  0
 89 92  1  6
 90 91  2  0
 90 99  1  0
 92 93  1  0
 93 94  2  0
 93 95  1  0
 94 96  1  0
 95 97  2  0
 96 98  2  0
 97 98  1  0
 99100  1  0
100101  1  0
100103  1  1
101102  2  0
101113  1  0
103104  1  0
104105  2  0
104106  1  0
105107  1  0
106108  2  0
106109  1  0
107108  1  0
108110  1  0
109111  2  0
110112  2  0
111112  1  0
113114  1  0
114115  1  0
114117  1  1
115116  2  0
115122  1  0
117118  1  0
118119  1  0
119120  1  0
119121  2  0
122123  1  0
123124  1  0
123126  1  6
124125  2  0
124131  1  0
126127  1  0
127128  1  0
128129  1  0
128130  2  0
131132  1  0
131137  1  0
132133  1  1
132135  1  0
133134  2  0
133138  1  0
135136  1  0
136137  1  0
M  CHG  4  35   1  51   1 120  -1 129  -1
M  END
$$$$
