
     RDKit          3D

138143  0  0  0  0  0  0  0  0999 V2000
   26.2100    3.0047   36.3613 C   0  0  0  0  0  0  0  0  0  0  0  0
   27.0150    2.1598   36.7397 O   0  0  0  0  0  0  0  0  0  0  0  0
   24.7411    2.6948   36.2450 C   0  0  0  0  0  0  0  0  0  0  0  0
   26.5475    4.2913   36.0045 N   0  0  0  0  0  0  0  0  0  0  0  0
   25.5416    5.2860   35.6152 C   0  0  2  0  0  0  0  0  0  0  0  0
   25.2783    5.4810   34.0852 C   0  0  0  0  0  0  0  0  0  0  0  0
   26.1190    5.0402   33.2851 O   0  0  0  0  0  0  0  0  0  0  0  0
   25.8193    6.6237   36.3608 C   0  0  1  0  0  0  0  0  0  0  0  0
   25.7016    6.5166   37.8833 C   0  0  0  0  0  0  0  0  0  0  0  0
   27.1779    7.2310   35.9836 C   0  0  0  0  0  0  0  0  0  0  0  0
   24.1148    6.0479   33.5966 N   0  0  0  0  0  0  0  0  0  0  0  0
   23.8231    5.9635   32.1536 C   0  0  2  0  0  0  0  0  0  0  0  0
   24.2830    7.0998   31.2236 C   0  0  0  0  0  0  0  0  0  0  0  0
   25.1242    7.9054   31.6242 O   0  0  0  0  0  0  0  0  0  0  0  0
   22.2940    5.8932   32.1037 C   0  0  0  0  0  0  0  0  0  0  0  0
   21.8745    6.7364   33.2977 C   0  0  0  0  0  0  0  0  0  0  0  0
   22.9111    6.3672   34.3449 C   0  0  0  0  0  0  0  0  0  0  0  0
   23.8948    7.0957   29.9129 N   0  0  0  0  0  0  0  0  0  0  0  0
   24.3389    8.1482   28.9780 C   0  0  2  0  0  0  0  0  0  0  0  0
   23.7582    8.1334   27.5246 C   0  0  0  0  0  0  0  0  0  0  0  0
   23.9193    7.1775   26.7637 O   0  0  0  0  0  0  0  0  0  0  0  0
   25.8769    8.2284   28.9134 C   0  0  0  0  0  0  0  0  0  0  0  0
   26.4602    9.2053   29.9392 C   0  0  0  0  0  0  0  0  0  0  0  0
   25.9452    8.8141   31.6470 S   0  0  0  0  0  0  0  0  0  0  0  0
   25.2576   10.4135   32.1280 C   0  0  0  0  0  0  0  0  0  0  0  0
   23.2133    9.3039   27.0760 N   0  0  0  0  0  0  0  0  0  0  0  0
   21.9322    9.4056   26.3705 C   0  0  2  0  0  0  0  0  0  0  0  0
   21.4151    7.9626   26.1412 C   0  0  0  0  0  0  0  0  0  0  0  0
   21.6099    7.3469   25.0983 O   0  0  0  0  0  0  0  0  0  0  0  0
   22.0129   10.1240   25.0146 C   0  0  0  0  0  0  0  0  0  0  0  0
   23.3671   10.1144   24.3161 C   0  0  0  0  0  0  0  0  0  0  0  0
   23.1808    9.6827   22.8592 C   0  0  0  0  0  0  0  0  0  0  0  0
   22.5114    8.3941   22.7782 N   0  0  0  0  0  0  0  0  0  0  0  0
   22.1184    7.7948   21.6360 C   0  0  0  0  0  0  0  0  0  0  0  0
   21.5630    6.5918   21.6042 N   0  0  0  0  0  4  0  0  0  0  0  0
   22.3459    8.4306   20.4854 N   0  0  0  0  0  0  0  0  0  0  0  0
   20.7045    7.4307   27.1964 N   0  0  0  0  0  0  0  0  0  0  0  0
   19.5038    6.5940   27.1000 C   0  0  2  0  0  0  0  0  0  0  0  0
   19.3730    5.9479   25.6851 C   0  0  0  0  0  0  0  0  0  0  0  0
   20.2598    5.2389   25.1904 O   0  0  0  0  0  0  0  0  0  0  0  0
   18.2134    7.2487   27.5351 C   0  0  0  0  0  0  0  0  0  0  0  0
   18.1461    6.1053   25.0853 N   0  0  0  0  0  0  0  0  0  0  0  0
   17.8101    5.5670   23.7675 C   0  0  2  0  0  0  0  0  0  0  0  0
   16.4142    6.1211   23.3975 C   0  0  0  0  0  0  0  0  0  0  0  0
   15.3751    5.5803   23.7871 O   0  0  0  0  0  0  0  0  0  0  0  0
   17.7792    4.0430   23.8096 C   0  0  0  0  0  0  0  0  0  0  0  0
   18.6047    3.3695   22.7237 C   0  0  0  0  0  0  0  0  0  0  0  0
   18.5056    1.8548   22.7149 C   0  0  0  0  0  0  0  0  0  0  0  0
   19.6355    1.3029   21.9549 N   0  0  0  0  0  0  0  0  0  0  0  0
   20.3267    0.1945   22.2660 C   0  0  0  0  0  0  0  0  0  0  0  0
   19.9321   -0.6543   23.2271 N   0  0  0  0  0  4  0  0  0  0  0  0
   21.4444   -0.0718   21.5892 N   0  0  0  0  0  0  0  0  0  0  0  0
   16.3797    7.2635   22.6324 N   0  0  0  0  0  0  0  0  0  0  0  0
   15.1134    7.8013   22.1495 C   0  0  2  0  0  0  0  0  0  0  0  0
   15.1264    7.6980   20.6236 C   0  0  0  0  0  0  0  0  0  0  0  0
   14.9683    6.6314   20.0339 O   0  0  0  0  0  0  0  0  0  0  0  0
   14.9726    9.2557   22.5901 C   0  0  0  0  0  0  0  0  0  0  0  0
   16.2880    9.9920   22.8173 C   0  0  0  0  0  0  0  0  0  0  0  0
   16.5557   10.9705   21.6845 C   0  0  0  0  0  0  0  0  0  0  0  0
   15.7132   11.7111   21.1848 O   0  0  0  0  0  0  0  0  0  0  0  0
   17.8172   10.9070   21.1718 N   0  0  0  0  0  0  0  0  0  0  0  0
   15.2500    8.9041   19.9786 N   0  0  0  0  0  0  0  0  0  0  0  0
   15.4217    9.0183   18.5248 C   0  0  2  0  0  0  0  0  0  0  0  0
   15.6725   10.5288   18.3022 C   0  0  0  0  0  0  0  0  0  0  0  0
   14.9778   11.3722   18.8954 O   0  0  0  0  0  0  0  0  0  0  0  0
   14.1721    8.4896   17.8032 C   0  0  0  0  0  0  0  0  0  0  0  0
   12.8427    9.0176   18.3977 C   0  0  1  0  0  0  0  0  0  0  0  0
   13.0926   10.2542   19.2642 C   0  0  0  0  0  0  0  0  0  0  0  0
   11.8441    9.3485   17.2975 C   0  0  0  0  0  0  0  0  0  0  0  0
   16.6975   10.9439   17.4663 N   0  0  0  0  0  0  0  0  0  0  0  0
   17.2618   12.3120   17.5803 C   0  0  2  0  0  0  0  0  0  0  0  0
   16.4482   13.5050   17.0406 C   0  0  0  0  0  0  0  0  0  0  0  0
   16.9724   14.4302   16.4141 O   0  0  0  0  0  0  0  0  0  0  0  0
   18.6024   12.2296   16.8405 C   0  0  0  0  0  0  0  0  0  0  0  0
   18.9930   10.7706   17.0159 C   0  0  0  0  0  0  0  0  0  0  0  0
   17.6657   10.0569   16.8268 C   0  0  0  0  0  0  0  0  0  0  0  0
   15.1418   13.5547   17.4569 N   0  0  0  0  0  0  0  0  0  0  0  0
   14.2417   14.6020   16.9887 C   0  0  2  0  0  0  0  0  0  0  0  0
   12.8692   14.4137   17.6847 C   0  0  0  0  0  0  0  0  0  0  0  0
   12.1022   13.5039   17.3691 O   0  0  0  0  0  0  0  0  0  0  0  0
   14.1011   14.4926   15.4869 C   0  0  0  0  0  0  0  0  0  0  0  0
   12.5724   15.3165   18.6732 N   0  0  0  0  0  0  0  0  0  0  0  0
   11.2426   15.4124   19.2615 C   0  0  2  0  0  0  0  0  0  0  0  0
   11.2063   16.5948   20.2450 C   0  0  0  0  0  0  0  0  0  0  0  0
   12.0521   17.4924   20.1943 O   0  0  0  0  0  0  0  0  0  0  0  0
   10.8586   14.0854   19.9444 C   0  0  0  0  0  0  0  0  0  0  0  0
   11.6954   13.8675   21.0881 O   0  0  0  0  0  0  0  0  0  0  0  0
   10.2742   16.5023   21.2433 N   0  0  0  0  0  0  0  0  0  0  0  0
    9.0038   17.2273   21.2388 C   0  0  2  0  0  0  0  0  0  0  0  0
    9.3106   18.7202   21.4246 C   0  0  0  0  0  0  0  0  0  0  0  0
    8.6479   19.6037   20.8825 O   0  0  0  0  0  0  0  0  0  0  0  0
    8.0764   16.7983   22.3960 C   0  0  0  0  0  0  0  0  0  0  0  0
    6.6424   17.2430   22.2306 C   0  0  0  0  0  0  0  0  0  0  0  0
    5.5791   16.3656   22.4788 C   0  0  0  0  0  0  0  0  0  0  0  0
    6.3558   18.5521   21.8252 C   0  0  0  0  0  0  0  0  0  0  0  0
    4.2588   16.7868   22.3208 C   0  0  0  0  0  0  0  0  0  0  0  0
    5.0321   18.9744   21.6648 C   0  0  0  0  0  0  0  0  0  0  0  0
    3.9841   18.0930   21.9113 C   0  0  0  0  0  0  0  0  0  0  0  0
   10.3599   18.9682   22.2664 N   0  0  0  0  0  0  0  0  0  0  0  0
   10.3519   19.9074   23.3920 C   0  0  2  0  0  0  0  0  0  0  0  0
    8.8608   20.2496   23.6288 C   0  0  0  0  0  0  0  0  0  0  0  0
    7.9971   19.8257   22.8488 O   0  0  0  0  0  0  0  0  0  0  0  0
   11.3001   21.1077   23.2236 C   0  0  0  0  0  0  0  0  0  0  0  0
   12.7747   20.8467   23.3169 C   0  0  0  0  0  0  0  0  0  0  0  0
   13.8032   21.7486   23.1435 C   0  0  0  0  0  0  0  0  0  0  0  0
   13.3853   19.5948   23.6773 C   0  0  0  0  0  0  0  0  0  0  0  0
   14.9899   21.1257   23.4290 N   0  0  0  0  0  0  0  0  0  0  0  0
   14.7649   19.8148   23.7476 C   0  0  0  0  0  0  0  0  0  0  0  0
   12.8972   18.3058   23.9497 C   0  0  0  0  0  0  0  0  0  0  0  0
   15.6742   18.8132   24.1128 C   0  0  0  0  0  0  0  0  0  0  0  0
   13.7949   17.2809   24.2868 C   0  0  0  0  0  0  0  0  0  0  0  0
   15.1631   17.5366   24.3707 C   0  0  0  0  0  0  0  0  0  0  0  0
    8.5525   20.9420   24.7774 N   0  0  0  0  0  0  0  0  0  0  0  0
    9.5934   21.2390   25.7766 C   0  0  2  0  0  0  0  0  0  0  0  0
    9.9314   19.9047   26.4758 C   0  0  0  0  0  0  0  0  0  0  0  0
   10.1399   18.8732   25.8377 O   0  0  0  0  0  0  0  0  0  0  0  0
    9.0878   22.2654   26.8009 C   0  0  0  0  0  0  0  0  0  0  0  0
    7.9121   23.1146   26.2901 C   0  0  0  0  0  0  0  0  0  0  0  0
    8.2162   24.0299   25.1169 C   0  0  0  0  0  0  0  0  0  0  0  0
    7.4767   23.8791   24.1073 O   0  0  0  0  0  1  0  0  0  0  0  0
    9.1872   24.8209   25.2784 O   0  0  0  0  0  0  0  0  0  0  0  0
    9.9391   19.9812   27.8466 N   0  0  0  0  0  0  0  0  0  0  0  0
   11.0588   20.4680   28.6348 C   0  0  2  0  0  0  0  0  0  0  0  0
   11.0029   22.0052   28.8950 C   0  0  0  0  0  0  0  0  0  0  0  0
    9.9184   22.6032   28.7612 O   0  0  0  0  0  0  0  0  0  0  0  0
   12.4500   19.9755   28.1948 C   0  0  0  0  0  0  0  0  0  0  0  0
   12.9731   18.7149   28.8796 C   0  0  0  0  0  0  0  0  0  0  0  0
   13.9273   18.9365   30.0515 C   0  0  0  0  0  0  0  0  0  0  0  0
   15.1598   18.9328   29.8176 O   0  0  0  0  0  1  0  0  0  0  0  0
   13.3510   19.1299   31.1670 O   0  0  0  0  0  0  0  0  0  0  0  0
   12.1163   22.7201   29.3056 N   0  0  0  0  0  0  0  0  0  0  0  0
   12.8121   23.8544   28.6849 C   0  0  2  0  0  0  0  0  0  0  0  0
   13.9082   23.3689   27.7141 C   0  0  0  0  0  0  0  0  0  0  0  0
   15.0989   23.2764   27.9914 O   0  0  0  0  0  0  0  0  0  0  0  0
   13.4800   24.5810   29.8540 C   0  0  0  0  0  0  0  0  0  0  0  0
   13.7542   23.4707   30.8595 C   0  0  0  0  0  0  0  0  0  0  0  0
   12.6452   22.4525   30.6322 C   0  0  0  0  0  0  0  0  0  0  0  0
   13.4788   23.1449   26.4270 N   0  0  0  0  0  0  0  0  0  0  0  0
  1  2  2  0
  1  3  1  0
  1  4  1  0
  5  4  1  6
  5  6  1  0
  5  8  1  0
  6  7  2  0
  6 11  1  0
  8  9  1  1
  8 10  1  0
 11 12  1  0
 11 17  1  0
 12 13  1  6
 12 15  1  0
 13 14  2  0
 13 18  1  0
 15 16  1  0
 16 17  1  0
 18 19  1  0
 19 20  1  0
 19 22  1  6
 20 21  2  0
 20 26  1  0
 22 23  1  0
 23 24  1  0
 24 25  1  0
 26 27  1  0
 27 28  1  0
 27 30  1  6
 28 29  2  0
 28 37  1  0
 30 31  1  0
 31 32  1  0
 32 33  1  0
 33 34  1  0
 34 35  2  0
 34 36  1  0
 37 38  1  0
 38 39  1  0
 38 41  1  6
 39 40  2  0
 39 42  1  0
 42 43  1  0
 43 44  1  0
 43 46  1  1
 44 45  2  0
 44 53  1  0
 46 47  1  0
 47 48  1  0
 48 49  1  0
 49 50  1  0
 50 51  2  0
 50 52  1  0
 53 54  1  0
 54 55  1  0
 54 57  1  6
 55 56  2  0
 55 62  1  0
 57 58  1  0
 58 59  1  0
 59 60  2  0
 59 61  1  0
 62 63  1  0
 63 64  1  0
 63 66  1  6
 64 65  2  0
 64 70  1  0
 66 67  1  0
 67 68  1  6
 67 69  1  0
 70 71  1  0
 70 76  1  0
 71 72  1  6
 71 74  1  0
 72 73  2  0
 72 77  1  0
 74 75  1  0
 75 76  1  0
 77 78  1  0
 78 79  1  0
 78 81  1  6
 79 80  2  0
 79 82  1  0
 82 83  1  0
 83 84  1  0
 83 86  1  1
 84 85  2  0
 84 88  1  0
 86 87  1  0
 88 89  1  0
 89 90  1  0
 89 92  1  1
 90 91  2  0
 90 99  1  0
 92 93  1  0
 93 94  2  0
 93 95  1  0
 94 96  1  0
 95 97  2  0
 96 98  2  0
 97 98  1  0
 99100  1  0
100101  1  0
100103  1  6
101102  2  0
101113  1  0
103104  1  0
104105  2  0
104106  1  0
105107  1  0
106108  2  0
106109  1  0
107108  1  0
108110  1  0
109111  2  0
110112  2  0
111112  1  0
113114  1  0
114115  1  0
114117  1  1
115116  2  0
115122  1  0
117118  1  0
118119  1  0
119120  1  0
119121  2  0
122123  1  0
123124  1  0
123126  1  6
124125  2  0
124131  1  0
126127  1  0
127128  1  0
128129  1  0
128130  2  0
131132  1  0
131137  1  0
132133  1  6
132135  1  0
133134  2  0
133138  1  0
135136  1  0
136137  1  0
M  CHG  4  35   1  51   1 120  -1 129  -1
M  END
$$$$
