
     RDKit          3D

138143  0  0  0  0  0  0  0  0999 V2000
   26.9381   -3.0177   21.3926 C   0  0  0  0  0  0  0  0  0  0  0  0
   27.9120   -3.6548   21.7806 O   0  0  0  0  0  0  0  0  0  0  0  0
   25.6722   -2.9444   22.2045 C   0  0  0  0  0  0  0  0  0  0  0  0
   26.8899   -2.3234   20.2042 N   0  0  0  0  0  0  0  0  0  0  0  0
   25.6872   -1.6084   19.7626 C   0  0  2  0  0  0  0  0  0  0  0  0
   25.5138   -0.1291   20.2423 C   0  0  0  0  0  0  0  0  0  0  0  0
   24.4811    0.4762   19.9135 O   0  0  0  0  0  0  0  0  0  0  0  0
   24.4319   -2.4877   20.0339 C   0  0  1  0  0  0  0  0  0  0  0  0
   23.1233   -1.6950   20.0840 C   0  0  0  0  0  0  0  0  0  0  0  0
   24.3030   -3.6454   19.0339 C   0  0  0  0  0  0  0  0  0  0  0  0
   26.4229    0.4932   21.0790 N   0  0  0  0  0  0  0  0  0  0  0  0
   26.0716    0.7028   22.4958 C   0  0  2  0  0  0  0  0  0  0  0  0
   25.3997    2.0207   22.9190 C   0  0  0  0  0  0  0  0  0  0  0  0
   25.0435    2.8222   22.0542 O   0  0  0  0  0  0  0  0  0  0  0  0
   27.4197    0.6000   23.2152 C   0  0  0  0  0  0  0  0  0  0  0  0
   28.3953    1.1634   22.1937 C   0  0  0  0  0  0  0  0  0  0  0  0
   27.8574    0.6144   20.8835 C   0  0  0  0  0  0  0  0  0  0  0  0
   25.0422    2.2049   24.2255 N   0  0  0  0  0  0  0  0  0  0  0  0
   24.3464    3.4303   24.6651 C   0  0  2  0  0  0  0  0  0  0  0  0
   24.2205    3.6926   26.2030 C   0  0  0  0  0  0  0  0  0  0  0  0
   24.0985    2.7755   27.0170 O   0  0  0  0  0  0  0  0  0  0  0  0
   22.9563    3.5514   24.0101 C   0  0  0  0  0  0  0  0  0  0  0  0
   22.0894    2.3079   24.2318 C   0  0  0  0  0  0  0  0  0  0  0  0
   20.9870    1.9642   22.8171 S   0  0  0  0  0  0  0  0  0  0  0  0
   20.2092    0.4435   23.4041 C   0  0  0  0  0  0  0  0  0  0  0  0
   24.0749    4.9963   26.5870 N   0  0  0  0  0  0  0  0  0  0  0  0
   22.8005    5.6097   26.9733 C   0  0  2  0  0  0  0  0  0  0  0  0
   23.1267    6.9630   27.6546 C   0  0  0  0  0  0  0  0  0  0  0  0
   23.3320    7.0658   28.8595 O   0  0  0  0  0  0  0  0  0  0  0  0
   21.9572    4.7606   27.9373 C   0  0  0  0  0  0  0  0  0  0  0  0
   22.3675    4.7828   29.4045 C   0  0  0  0  0  0  0  0  0  0  0  0
   23.5392    3.8204   29.6159 C   0  0  0  0  0  0  0  0  0  0  0  0
   23.1625    2.7246   30.4947 N   0  0  0  0  0  0  0  0  0  0  0  0
   23.5123    2.6159   31.7924 C   0  0  0  0  0  0  0  0  0  0  0  0
   24.7343    2.8737   32.2364 N   0  0  0  0  0  4  0  0  0  0  0  0
   22.5908    2.1832   32.6548 N   0  0  0  0  0  0  0  0  0  0  0  0
   23.1524    8.0461   26.8015 N   0  0  0  0  0  0  0  0  0  0  0  0
   23.8618    9.3101   27.0250 C   0  0  2  0  0  0  0  0  0  0  0  0
   22.9835   10.3211   27.8267 C   0  0  0  0  0  0  0  0  0  0  0  0
   23.3034   11.5076   27.9806 O   0  0  0  0  0  0  0  0  0  0  0  0
   24.4646    9.9484   25.7952 C   0  0  0  0  0  0  0  0  0  0  0  0
   21.7617    9.8372   28.2304 N   0  0  0  0  0  0  0  0  0  0  0  0
   20.7635   10.6380   28.9386 C   0  0  2  0  0  0  0  0  0  0  0  0
   21.4925   11.3278   30.1155 C   0  0  0  0  0  0  0  0  0  0  0  0
   22.7237   11.3326   30.2055 O   0  0  0  0  0  0  0  0  0  0  0  0
   19.6426    9.7461   29.4617 C   0  0  0  0  0  0  0  0  0  0  0  0
   19.3948    8.4979   28.6283 C   0  0  0  0  0  0  0  0  0  0  0  0
   18.5818    8.7404   27.3695 C   0  0  0  0  0  0  0  0  0  0  0  0
   19.3777    8.3462   26.1990 N   0  0  0  0  0  0  0  0  0  0  0  0
   19.2311    7.2135   25.4929 C   0  0  0  0  0  0  0  0  0  0  0  0
   18.9200    7.2134   24.1879 N   0  0  0  0  0  4  0  0  0  0  0  0
   19.4064    6.0467   26.1144 N   0  0  0  0  0  0  0  0  0  0  0  0
   20.7070   11.9615   31.0500 N   0  0  0  0  0  0  0  0  0  0  0  0
   21.2971   12.8540   32.0406 C   0  0  2  0  0  0  0  0  0  0  0  0
   20.4011   12.8163   33.2794 C   0  0  0  0  0  0  0  0  0  0  0  0
   20.5294   11.9688   34.1601 O   0  0  0  0  0  0  0  0  0  0  0  0
   21.3748   14.2691   31.4742 C   0  0  0  0  0  0  0  0  0  0  0  0
   21.6965   15.3560   32.4936 C   0  0  0  0  0  0  0  0  0  0  0  0
   22.6470   16.3829   31.8983 C   0  0  0  0  0  0  0  0  0  0  0  0
   22.3624   17.5574   31.6807 O   0  0  0  0  0  0  0  0  0  0  0  0
   23.8547   15.8783   31.5176 N   0  0  0  0  0  0  0  0  0  0  0  0
   19.5022   13.8517   33.3559 N   0  0  0  0  0  0  0  0  0  0  0  0
   18.0483   13.6526   33.3036 C   0  0  2  0  0  0  0  0  0  0  0  0
   17.4744   15.0133   33.7651 C   0  0  0  0  0  0  0  0  0  0  0  0
   16.4904   15.0520   34.5241 O   0  0  0  0  0  0  0  0  0  0  0  0
   17.6445   12.4767   34.2069 C   0  0  0  0  0  0  0  0  0  0  0  0
   16.4339   12.7855   35.1227 C   0  0  1  0  0  0  0  0  0  0  0  0
   15.1866   12.0433   34.6369 C   0  0  0  0  0  0  0  0  0  0  0  0
   16.7307   12.4101   36.5677 C   0  0  0  0  0  0  0  0  0  0  0  0
   18.0801   16.1926   33.3599 N   0  0  0  0  0  0  0  0  0  0  0  0
   17.4725   17.5074   33.6845 C   0  0  2  0  0  0  0  0  0  0  0  0
   16.2293   17.9718   32.9001 C   0  0  0  0  0  0  0  0  0  0  0  0
   16.1442   17.8596   31.6740 O   0  0  0  0  0  0  0  0  0  0  0  0
   18.6132   18.5110   33.4776 C   0  0  0  0  0  0  0  0  0  0  0  0
   19.8509   17.6763   33.7666 C   0  0  0  0  0  0  0  0  0  0  0  0
   19.5090   16.3533   33.1036 C   0  0  0  0  0  0  0  0  0  0  0  0
   15.3078   18.6758   33.6334 N   0  0  0  0  0  0  0  0  0  0  0  0
   14.0513   19.1171   33.0394 C   0  0  2  0  0  0  0  0  0  0  0  0
   14.2280   19.1619   31.4998 C   0  0  0  0  0  0  0  0  0  0  0  0
   13.4655   18.5615   30.7424 O   0  0  0  0  0  0  0  0  0  0  0  0
   13.7077   20.4870   33.5800 C   0  0  0  0  0  0  0  0  0  0  0  0
   15.2778   19.9154   31.0412 N   0  0  0  0  0  0  0  0  0  0  0  0
   15.2152   21.3696   30.9695 C   0  0  2  0  0  0  0  0  0  0  0  0
   15.6931   21.8309   29.5818 C   0  0  0  0  0  0  0  0  0  0  0  0
   16.6999   22.5336   29.4555 O   0  0  0  0  0  0  0  0  0  0  0  0
   16.0470   22.0011   32.1026 C   0  0  0  0  0  0  0  0  0  0  0  0
   17.2749   21.2789   32.2647 O   0  0  0  0  0  0  0  0  0  0  0  0
   14.8573   21.5289   28.5406 N   0  0  0  0  0  0  0  0  0  0  0  0
   14.6329   20.1707   28.0461 C   0  0  2  0  0  0  0  0  0  0  0  0
   15.0932   20.1183   26.5822 C   0  0  0  0  0  0  0  0  0  0  0  0
   15.9808   19.3593   26.1951 O   0  0  0  0  0  0  0  0  0  0  0  0
   13.1420   19.7713   28.0766 C   0  0  0  0  0  0  0  0  0  0  0  0
   12.8266   18.5163   27.2975 C   0  0  0  0  0  0  0  0  0  0  0  0
   11.6900   18.4364   26.4827 C   0  0  0  0  0  0  0  0  0  0  0  0
   13.6768   17.4070   27.3795 C   0  0  0  0  0  0  0  0  0  0  0  0
   11.4078   17.2715   25.7694 C   0  0  0  0  0  0  0  0  0  0  0  0
   13.3933   16.2380   26.6658 C   0  0  0  0  0  0  0  0  0  0  0  0
   12.2596   16.1692   25.8621 C   0  0  0  0  0  0  0  0  0  0  0  0
   14.4062   20.9649   25.7562 N   0  0  0  0  0  0  0  0  0  0  0  0
   14.9054   22.2374   25.2265 C   0  0  2  0  0  0  0  0  0  0  0  0
   16.4380   22.0569   25.1047 C   0  0  0  0  0  0  0  0  0  0  0  0
   16.9039   21.2667   24.2724 O   0  0  0  0  0  0  0  0  0  0  0  0
   14.4329   23.4780   26.0051 C   0  0  0  0  0  0  0  0  0  0  0  0
   12.9575   23.7455   26.0568 C   0  0  0  0  0  0  0  0  0  0  0  0
   12.3063   24.7510   26.7395 C   0  0  0  0  0  0  0  0  0  0  0  0
   11.9464   23.0222   25.3323 C   0  0  0  0  0  0  0  0  0  0  0  0
   10.9729   24.7058   26.4268 N   0  0  0  0  0  0  0  0  0  0  0  0
   10.7264   23.6598   25.5808 C   0  0  0  0  0  0  0  0  0  0  0  0
   11.9552   21.8949   24.4939 C   0  0  0  0  0  0  0  0  0  0  0  0
    9.5214   23.2425   25.0003 C   0  0  0  0  0  0  0  0  0  0  0  0
   10.7535   21.4421   23.9276 C   0  0  0  0  0  0  0  0  0  0  0  0
    9.5563   22.1124   24.1760 C   0  0  0  0  0  0  0  0  0  0  0  0
   17.2281   22.8763   25.8781 N   0  0  0  0  0  0  0  0  0  0  0  0
   18.6495   22.5581   26.0981 C   0  0  2  0  0  0  0  0  0  0  0  0
   18.6951   21.1656   26.7632 C   0  0  0  0  0  0  0  0  0  0  0  0
   17.6686   20.5475   27.0442 O   0  0  0  0  0  0  0  0  0  0  0  0
   19.3076   23.6060   27.0075 C   0  0  0  0  0  0  0  0  0  0  0  0
   20.4044   23.0276   27.9170 C   0  0  0  0  0  0  0  0  0  0  0  0
   20.0225   22.8326   29.3739 C   0  0  0  0  0  0  0  0  0  0  0  0
   20.9713   22.5271   30.1454 O   0  0  0  0  0  1  0  0  0  0  0  0
   18.7969   22.9769   29.6416 O   0  0  0  0  0  0  0  0  0  0  0  0
   19.9652   20.7190   27.0324 N   0  0  0  0  0  0  0  0  0  0  0  0
   20.2739   19.4180   27.6016 C   0  0  2  0  0  0  0  0  0  0  0  0
   19.9920   18.2375   26.6213 C   0  0  0  0  0  0  0  0  0  0  0  0
   18.8210   18.0190   26.2571 O   0  0  0  0  0  0  0  0  0  0  0  0
   19.7412   19.1677   29.0246 C   0  0  0  0  0  0  0  0  0  0  0  0
   18.4528   18.3556   29.1355 C   0  0  0  0  0  0  0  0  0  0  0  0
   18.5219   16.9174   28.6257 C   0  0  0  0  0  0  0  0  0  0  0  0
   18.9130   16.7267   27.4491 O   0  0  0  0  0  1  0  0  0  0  0  0
   18.1877   16.0413   29.4827 O   0  0  0  0  0  0  0  0  0  0  0  0
   21.0102   17.4463   26.1148 N   0  0  0  0  0  0  0  0  0  0  0  0
   22.4686   17.5602   26.2413 C   0  0  2  0  0  0  0  0  0  0  0  0
   23.0562   18.4367   25.1161 C   0  0  0  0  0  0  0  0  0  0  0  0
   22.4121   19.2260   24.4339 O   0  0  0  0  0  0  0  0  0  0  0  0
   22.9818   16.1295   26.0666 C   0  0  0  0  0  0  0  0  0  0  0  0
   21.9510   15.4862   25.1486 C   0  0  0  0  0  0  0  0  0  0  0  0
   20.6436   16.1990   25.4658 C   0  0  0  0  0  0  0  0  0  0  0  0
   24.3780   18.1914   24.8264 N   0  0  0  0  0  0  0  0  0  0  0  0
  1  2  2  0
  1  3  1  0
  1  4  1  0
  5  4  1  1
  5  6  1  0
  5  8  1  0
  6  7  2  0
  6 11  1  0
  8  9  1  6
  8 10  1  0
 11 12  1  0
 11 17  1  0
 12 13  1  6
 12 15  1  0
 13 14  2  0
 13 18  1  0
 15 16  1  0
 16 17  1  0
 18 19  1  0
 19 20  1  0
 19 22  1  1
 20 21  2  0
 20 26  1  0
 22 23  1  0
 23 24  1  0
 24 25  1  0
 26 27  1  0
 27 28  1  0
 27 30  1  1
 28 29  2  0
 28 37  1  0
 30 31  1  0
 31 32  1  0
 32 33  1  0
 33 34  1  0
 34 35  2  0
 34 36  1  0
 37 38  1  0
 38 39  1  0
 38 41  1  6
 39 40  2  0
 39 42  1  0
 42 43  1  0
 43 44  1  0
 43 46  1  1
 44 45  2  0
 44 53  1  0
 46 47  1  0
 47 48  1  0
 48 49  1  0
 49 50  1  0
 50 51  2  0
 50 52  1  0
 53 54  1  0
 54 55  1  0
 54 57  1  6
 55 56  2  0
 55 62  1  0
 57 58  1  0
 58 59  1  0
 59 60  2  0
 59 61  1  0
 62 63  1  0
 63 64  1  0
 63 66  1  1
 64 65  2  0
 64 70  1  0
 66 67  1  0
 67 68  1  6
 67 69  1  0
 70 71  1  0
 70 76  1  0
 71 72  1  6
 71 74  1  0
 72 73  2  0
 72 77  1  0
 74 75  1  0
 75 76  1  0
 77 78  1  0
 78 79  1  0
 78 81  1  1
 79 80  2  0
 79 82  1  0
 82 83  1  0
 83 84  1  0
 83 86  1  1
 84 85  2  0
 84 88  1  0
 86 87  1  0
 88 89  1  0
 89 90  1  0
 89 92  1  6
 90 91  2  0
 90 99  1  0
 92 93  1  0
 93 94  2  0
 93 95  1  0
 94 96  1  0
 95 97  2  0
 96 98  2  0
 97 98  1  0
 99100  1  0
100101  1  0
100103  1  1
101102  2  0
101113  1  0
103104  1  0
104105  2  0
104106  1  0
105107  1  0
106108  2  0
106109  1  0
107108  1  0
108110  1  0
109111  2  0
110112  2  0
111112  1  0
113114  1  0
114115  1  0
114117  1  1
115116  2  0
115122  1  0
117118  1  0
118119  1  0
119120  1  0
119121  2  0
122123  1  0
123124  1  0
123126  1  1
124125  2  0
124131  1  0
126127  1  0
127128  1  0
128129  1  0
128130  2  0
131132  1  0
131137  1  0
132133  1  6
132135  1  0
133134  2  0
133138  1  0
135136  1  0
136137  1  0
M  CHG  4  35   1  51   1 120  -1 129  -1
M  END
$$$$
