
     RDKit          3D

138143  0  0  0  0  0  0  0  0999 V2000
   30.9185    3.6987   42.3346 C   0  0  0  0  0  0  0  0  0  0  0  0
   31.4539    4.7347   42.7155 O   0  0  0  0  0  0  0  0  0  0  0  0
   31.0596    2.4119   43.1036 C   0  0  0  0  0  0  0  0  0  0  0  0
   30.1561    3.5953   41.1924 N   0  0  0  0  0  0  0  0  0  0  0  0
   29.7593    4.7688   40.4061 C   0  0  2  0  0  0  0  0  0  0  0  0
   28.2269    5.0251   40.2210 C   0  0  0  0  0  0  0  0  0  0  0  0
   27.4386    4.1218   40.5433 O   0  0  0  0  0  0  0  0  0  0  0  0
   30.5460    4.7836   39.0632 C   0  0  1  0  0  0  0  0  0  0  0  0
   31.8728    5.5438   39.1345 C   0  0  0  0  0  0  0  0  0  0  0  0
   30.7826    3.3713   38.5098 C   0  0  0  0  0  0  0  0  0  0  0  0
   27.7219    6.2397   39.7926 N   0  0  0  0  0  0  0  0  0  0  0  0
   26.2823    6.3568   39.4951 C   0  0  2  0  0  0  0  0  0  0  0  0
   25.7865    6.1085   38.0598 C   0  0  0  0  0  0  0  0  0  0  0  0
   26.3621    6.6560   37.1185 O   0  0  0  0  0  0  0  0  0  0  0  0
   25.9588    7.8062   39.8695 C   0  0  0  0  0  0  0  0  0  0  0  0
   27.2485    8.5404   39.5374 C   0  0  0  0  0  0  0  0  0  0  0  0
   28.3152    7.5529   39.9784 C   0  0  0  0  0  0  0  0  0  0  0  0
   24.8394    5.1496   37.8312 N   0  0  0  0  0  0  0  0  0  0  0  0
   24.2516    4.9560   36.4910 C   0  0  2  0  0  0  0  0  0  0  0  0
   23.7693    6.2235   35.7097 C   0  0  0  0  0  0  0  0  0  0  0  0
   22.6506    6.7118   35.8787 O   0  0  0  0  0  0  0  0  0  0  0  0
   23.1181    3.9118   36.5214 C   0  0  0  0  0  0  0  0  0  0  0  0
   23.4710    2.6825   37.3648 C   0  0  0  0  0  0  0  0  0  0  0  0
   24.2632    1.3644   36.3801 S   0  0  0  0  0  0  0  0  0  0  0  0
   24.9066    0.3348   37.7174 C   0  0  0  0  0  0  0  0  0  0  0  0
   24.5814    6.6610   34.7011 N   0  0  0  0  0  0  0  0  0  0  0  0
   24.3164    7.8445   33.8773 C   0  0  2  0  0  0  0  0  0  0  0  0
   23.4993    7.3770   32.6461 C   0  0  0  0  0  0  0  0  0  0  0  0
   23.7151    6.3146   32.0722 O   0  0  0  0  0  0  0  0  0  0  0  0
   25.5798    8.5689   33.3871 C   0  0  0  0  0  0  0  0  0  0  0  0
   25.3674    9.8624   32.6102 C   0  0  0  0  0  0  0  0  0  0  0  0
   26.1248    9.7840   31.2821 C   0  0  0  0  0  0  0  0  0  0  0  0
   27.3709    9.0497   31.4344 N   0  0  0  0  0  0  0  0  0  0  0  0
   28.2122    8.7331   30.4293 C   0  0  0  0  0  0  0  0  0  0  0  0
   27.8054    8.5159   29.1866 N   0  0  0  0  0  4  0  0  0  0  0  0
   29.5065    8.5884   30.7187 N   0  0  0  0  0  0  0  0  0  0  0  0
   22.5202    8.2573   32.2364 N   0  0  0  0  0  0  0  0  0  0  0  0
   21.5101    8.0115   31.2018 C   0  0  2  0  0  0  0  0  0  0  0  0
   21.7875    8.8623   29.9229 C   0  0  0  0  0  0  0  0  0  0  0  0
   22.2540   10.0085   29.9716 O   0  0  0  0  0  0  0  0  0  0  0  0
   20.0720    8.1312   31.6498 C   0  0  0  0  0  0  0  0  0  0  0  0
   21.6096    8.1977   28.7326 N   0  0  0  0  0  0  0  0  0  0  0  0
   21.7534    8.8272   27.4203 C   0  0  2  0  0  0  0  0  0  0  0  0
   20.7962    8.0855   26.4580 C   0  0  0  0  0  0  0  0  0  0  0  0
   20.1191    7.1218   26.8280 O   0  0  0  0  0  0  0  0  0  0  0  0
   23.1924    8.7075   26.9300 C   0  0  0  0  0  0  0  0  0  0  0  0
   24.1528    8.1090   27.9466 C   0  0  0  0  0  0  0  0  0  0  0  0
   25.6023    8.0863   27.4964 C   0  0  0  0  0  0  0  0  0  0  0  0
   25.6820    7.4808   26.1601 N   0  0  0  0  0  0  0  0  0  0  0  0
   26.5388    7.8308   25.1873 C   0  0  0  0  0  0  0  0  0  0  0  0
   26.2366    8.7497   24.2576 N   0  0  0  0  0  4  0  0  0  0  0  0
   27.7359    7.2443   25.1495 N   0  0  0  0  0  0  0  0  0  0  0  0
   20.7119    8.5639   25.1712 N   0  0  0  0  0  0  0  0  0  0  0  0
   19.4190    8.7191   24.5151 C   0  0  2  0  0  0  0  0  0  0  0  0
   19.5983    9.7397   23.3902 C   0  0  0  0  0  0  0  0  0  0  0  0
   20.6848   10.2532   23.1332 O   0  0  0  0  0  0  0  0  0  0  0  0
   18.3860    9.2077   25.5267 C   0  0  0  0  0  0  0  0  0  0  0  0
   18.0721    8.2295   26.6530 C   0  0  0  0  0  0  0  0  0  0  0  0
   17.8077    6.8395   26.0959 C   0  0  0  0  0  0  0  0  0  0  0  0
   17.6604    5.8283   26.7768 O   0  0  0  0  0  0  0  0  0  0  0  0
   17.8385    6.7630   24.7352 N   0  0  0  0  0  0  0  0  0  0  0  0
   18.4638    9.9676   22.6507 N   0  0  0  0  0  0  0  0  0  0  0  0
   17.2795   10.6453   23.1933 C   0  0  2  0  0  0  0  0  0  0  0  0
   17.8680   11.8452   23.9729 C   0  0  0  0  0  0  0  0  0  0  0  0
   17.5706   12.0216   25.1672 O   0  0  0  0  0  0  0  0  0  0  0  0
   16.4743    9.6759   24.0729 C   0  0  0  0  0  0  0  0  0  0  0  0
   15.1473   10.2749   24.6018 C   0  0  1  0  0  0  0  0  0  0  0  0
   14.0036    9.2687   24.4523 C   0  0  0  0  0  0  0  0  0  0  0  0
   15.2793   10.6973   26.0582 C   0  0  0  0  0  0  0  0  0  0  0  0
   18.7571   12.7066   23.3487 N   0  0  0  0  0  0  0  0  0  0  0  0
   18.2925   13.9997   22.7876 C   0  0  2  0  0  0  0  0  0  0  0  0
   17.4933   14.0000   21.4693 C   0  0  0  0  0  0  0  0  0  0  0  0
   17.4828   13.0308   20.7052 O   0  0  0  0  0  0  0  0  0  0  0  0
   19.5780   14.8159   22.6075 C   0  0  0  0  0  0  0  0  0  0  0  0
   20.4862   14.2543   23.6900 C   0  0  0  0  0  0  0  0  0  0  0  0
   20.1914   12.7662   23.6176 C   0  0  0  0  0  0  0  0  0  0  0  0
   16.9445   15.2084   21.1215 N   0  0  0  0  0  0  0  0  0  0  0  0
   15.5973   15.2926   20.5699 C   0  0  2  0  0  0  0  0  0  0  0  0
   14.5840   15.0289   21.7133 C   0  0  0  0  0  0  0  0  0  0  0  0
   14.9433   14.9249   22.8862 O   0  0  0  0  0  0  0  0  0  0  0  0
   15.4505   14.2604   19.4744 C   0  0  0  0  0  0  0  0  0  0  0  0
   13.2699   14.9277   21.3348 N   0  0  0  0  0  0  0  0  0  0  0  0
   12.3747   16.0776   21.3273 C   0  0  2  0  0  0  0  0  0  0  0  0
   12.2330   16.6018   19.8879 C   0  0  0  0  0  0  0  0  0  0  0  0
   12.9751   17.4888   19.4566 O   0  0  0  0  0  0  0  0  0  0  0  0
   12.8897   17.1675   22.2873 C   0  0  0  0  0  0  0  0  0  0  0  0
   12.8641   18.4430   21.6331 O   0  0  0  0  0  0  0  0  0  0  0  0
   11.1578   16.1221   19.1895 N   0  0  0  0  0  0  0  0  0  0  0  0
    9.9531   16.9044   18.9138 C   0  0  2  0  0  0  0  0  0  0  0  0
    8.7882   16.2665   19.6843 C   0  0  0  0  0  0  0  0  0  0  0  0
    8.3075   15.1775   19.3731 O   0  0  0  0  0  0  0  0  0  0  0  0
    9.5760   16.8979   17.4169 C   0  0  0  0  0  0  0  0  0  0  0  0
    8.4730   17.8652   17.0574 C   0  0  0  0  0  0  0  0  0  0  0  0
    7.9732   18.7753   17.9976 C   0  0  0  0  0  0  0  0  0  0  0  0
    7.9329   17.8653   15.7657 C   0  0  0  0  0  0  0  0  0  0  0  0
    6.9529   19.6624   17.6549 C   0  0  0  0  0  0  0  0  0  0  0  0
    6.9085   18.7535   15.4220 C   0  0  0  0  0  0  0  0  0  0  0  0
    6.4179   19.6509   16.3653 C   0  0  0  0  0  0  0  0  0  0  0  0
    8.3644   17.0039   20.7554 N   0  0  0  0  0  0  0  0  0  0  0  0
    7.4299   18.1322   20.7030 C   0  0  2  0  0  0  0  0  0  0  0  0
    7.1130   18.3315   19.2009 C   0  0  0  0  0  0  0  0  0  0  0  0
    7.9644   18.8250   18.4488 O   0  0  0  0  0  0  0  0  0  0  0  0
    7.9027   19.3837   21.4637 C   0  0  0  0  0  0  0  0  0  0  0  0
    6.8751   20.1560   22.2374 C   0  0  0  0  0  0  0  0  0  0  0  0
    7.0779   21.2557   23.0441 C   0  0  0  0  0  0  0  0  0  0  0  0
    5.4561   19.9185   22.2194 C   0  0  0  0  0  0  0  0  0  0  0  0
    5.8615   21.7227   23.4687 N   0  0  0  0  0  0  0  0  0  0  0  0
    4.8607   20.9234   22.9891 C   0  0  0  0  0  0  0  0  0  0  0  0
    4.6291   18.9514   21.6238 C   0  0  0  0  0  0  0  0  0  0  0  0
    3.4737   21.0252   23.1601 C   0  0  0  0  0  0  0  0  0  0  0  0
    3.2395   19.0178   21.8091 C   0  0  0  0  0  0  0  0  0  0  0  0
    2.6734   20.0448   22.5634 C   0  0  0  0  0  0  0  0  0  0  0  0
    5.9077   17.8475   18.7461 N   0  0  0  0  0  0  0  0  0  0  0  0
    4.8441   18.7702   18.3129 C   0  0  2  0  0  0  0  0  0  0  0  0
    5.4580   20.1867   18.3125 C   0  0  0  0  0  0  0  0  0  0  0  0
    5.6323   20.8179   19.3545 O   0  0  0  0  0  0  0  0  0  0  0  0
    3.6456   18.7079   19.2710 C   0  0  0  0  0  0  0  0  0  0  0  0
    2.5291   19.7063   18.9233 C   0  0  0  0  0  0  0  0  0  0  0  0
    1.5251   19.9887   20.0273 C   0  0  0  0  0  0  0  0  0  0  0  0
    1.6658   21.0940   20.6166 O   0  0  0  0  0  1  0  0  0  0  0  0
    0.6793   19.0762   20.2433 O   0  0  0  0  0  0  0  0  0  0  0  0
    5.7473   20.6674   17.0593 N   0  0  0  0  0  0  0  0  0  0  0  0
    4.7716   20.8170   15.9928 C   0  0  2  0  0  0  0  0  0  0  0  0
    3.8581   22.0693   16.1689 C   0  0  0  0  0  0  0  0  0  0  0  0
    2.9291   22.0298   16.9978 O   0  0  0  0  0  0  0  0  0  0  0  0
    3.9921   19.5432   15.6165 C   0  0  0  0  0  0  0  0  0  0  0  0
    2.4688   19.6496   15.6287 C   0  0  0  0  0  0  0  0  0  0  0  0
    1.7814   19.2661   16.9376 C   0  0  0  0  0  0  0  0  0  0  0  0
    1.5537   18.0510   17.1506 O   0  0  0  0  0  1  0  0  0  0  0  0
    1.5278   20.2476   17.7033 O   0  0  0  0  0  0  0  0  0  0  0  0
    4.0711   23.2380   15.4562 N   0  0  0  0  0  0  0  0  0  0  0  0
    4.0467   24.6423   15.8844 C   0  0  2  0  0  0  0  0  0  0  0  0
    2.6272   25.2342   15.7645 C   0  0  0  0  0  0  0  0  0  0  0  0
    2.3746   26.4250   15.6180 O   0  0  0  0  0  0  0  0  0  0  0  0
    4.9629   25.3619   14.8926 C   0  0  0  0  0  0  0  0  0  0  0  0
    4.8257   24.5434   13.6157 C   0  0  0  0  0  0  0  0  0  0  0  0
    4.5462   23.1232   14.0877 C   0  0  0  0  0  0  0  0  0  0  0  0
    1.6087   24.3299   15.9551 N   0  0  0  0  0  0  0  0  0  0  0  0
  1  2  2  0
  1  3  1  0
  1  4  1  0
  5  4  1  6
  5  6  1  0
  5  8  1  0
  6  7  2  0
  6 11  1  0
  8  9  1  1
  8 10  1  0
 11 12  1  0
 11 17  1  0
 12 13  1  6
 12 15  1  0
 13 14  2  0
 13 18  1  0
 15 16  1  0
 16 17  1  0
 18 19  1  0
 19 20  1  0
 19 22  1  1
 20 21  2  0
 20 26  1  0
 22 23  1  0
 23 24  1  0
 24 25  1  0
 26 27  1  0
 27 28  1  0
 27 30  1  6
 28 29  2  0
 28 37  1  0
 30 31  1  0
 31 32  1  0
 32 33  1  0
 33 34  1  0
 34 35  2  0
 34 36  1  0
 37 38  1  0
 38 39  1  0
 38 41  1  1
 39 40  2  0
 39 42  1  0
 42 43  1  0
 43 44  1  0
 43 46  1  6
 44 45  2  0
 44 53  1  0
 46 47  1  0
 47 48  1  0
 48 49  1  0
 49 50  1  0
 50 51  2  0
 50 52  1  0
 53 54  1  0
 54 55  1  0
 54 57  1  1
 55 56  2  0
 55 62  1  0
 57 58  1  0
 58 59  1  0
 59 60  2  0
 59 61  1  0
 62 63  1  0
 63 64  1  0
 63 66  1  1
 64 65  2  0
 64 70  1  0
 66 67  1  0
 67 68  1  1
 67 69  1  0
 70 71  1  0
 70 76  1  0
 71 72  1  6
 71 74  1  0
 72 73  2  0
 72 77  1  0
 74 75  1  0
 75 76  1  0
 77 78  1  0
 78 79  1  0
 78 81  1  6
 79 80  2  0
 79 82  1  0
 82 83  1  0
 83 84  1  0
 83 86  1  1
 84 85  2  0
 84 88  1  0
 86 87  1  0
 88 89  1  0
 89 90  1  0
 89 92  1  6
 90 91  2  0
 90 99  1  0
 92 93  1  0
 93 94  2  0
 93 95  1  0
 94 96  1  0
 95 97  2  0
 96 98  2  0
 97 98  1  0
 99100  1  0
100101  1  0
100103  1  6
101102  2  0
101113  1  0
103104  1  0
104105  2  0
104106  1  0
105107  1  0
106108  2  0
106109  1  0
107108  1  0
108110  1  0
109111  2  0
110112  2  0
111112  1  0
113114  1  0
114115  1  0
114117  1  1
115116  2  0
115122  1  0
117118  1  0
118119  1  0
119120  1  0
119121  2  0
122123  1  0
123124  1  0
123126  1  1
124125  2  0
124131  1  0
126127  1  0
127128  1  0
128129  1  0
128130  2  0
131132  1  0
131137  1  0
132133  1  6
132135  1  0
133134  2  0
133138  1  0
135136  1  0
136137  1  0
M  CHG  4  35   1  51   1 120  -1 129  -1
M  END
$$$$
