
     RDKit          3D

138143  0  0  0  0  0  0  0  0999 V2000
   22.9706    5.0340   35.7867 C   0  0  0  0  0  0  0  0  0  0  0  0
   23.4635    4.2595   34.9728 O   0  0  0  0  0  0  0  0  0  0  0  0
   21.8864    6.0022   35.3940 C   0  0  0  0  0  0  0  0  0  0  0  0
   23.3451    5.1090   37.1098 N   0  0  0  0  0  0  0  0  0  0  0  0
   24.3114    6.1003   37.5958 C   0  0  2  0  0  0  0  0  0  0  0  0
   24.1134    7.5826   37.1354 C   0  0  0  0  0  0  0  0  0  0  0  0
   23.8019    8.4256   37.9919 O   0  0  0  0  0  0  0  0  0  0  0  0
   25.7573    5.5762   37.3564 C   0  0  1  0  0  0  0  0  0  0  0  0
   26.8419    6.4447   37.9987 C   0  0  0  0  0  0  0  0  0  0  0  0
   25.9290    4.1156   37.7969 C   0  0  0  0  0  0  0  0  0  0  0  0
   24.3509    7.9966   35.8370 N   0  0  0  0  0  0  0  0  0  0  0  0
   24.1580    9.4160   35.4867 C   0  0  2  0  0  0  0  0  0  0  0  0
   22.7927    9.8815   34.9513 C   0  0  0  0  0  0  0  0  0  0  0  0
   22.0168    9.0531   34.4728 O   0  0  0  0  0  0  0  0  0  0  0  0
   25.2075    9.6592   34.3981 C   0  0  0  0  0  0  0  0  0  0  0  0
   25.2805    8.3161   33.6885 C   0  0  0  0  0  0  0  0  0  0  0  0
   25.1648    7.3280   34.8363 C   0  0  0  0  0  0  0  0  0  0  0  0
   22.3836   11.1663   35.1770 N   0  0  0  0  0  0  0  0  0  0  0  0
   22.0617   11.6411   36.5371 C   0  0  2  0  0  0  0  0  0  0  0  0
   21.1449   12.9018   36.6778 C   0  0  0  0  0  0  0  0  0  0  0  0
   20.6943   13.2671   37.7652 O   0  0  0  0  0  0  0  0  0  0  0  0
   23.3380   11.8404   37.3783 C   0  0  0  0  0  0  0  0  0  0  0  0
   24.6044   11.9163   36.5195 C   0  0  0  0  0  0  0  0  0  0  0  0
   26.0410   11.1255   37.3229 S   0  0  0  0  0  0  0  0  0  0  0  0
   26.4650    9.9118   36.0544 C   0  0  0  0  0  0  0  0  0  0  0  0
   20.7221   13.4787   35.5131 N   0  0  0  0  0  0  0  0  0  0  0  0
   19.8750   12.8139   34.5181 C   0  0  2  0  0  0  0  0  0  0  0  0
   19.5801   13.8449   33.3992 C   0  0  0  0  0  0  0  0  0  0  0  0
   19.6087   15.0563   33.5900 O   0  0  0  0  0  0  0  0  0  0  0  0
   18.5411   12.2901   35.0728 C   0  0  0  0  0  0  0  0  0  0  0  0
   18.5952   10.9929   35.8702 C   0  0  0  0  0  0  0  0  0  0  0  0
   17.1807   10.6162   36.3185 C   0  0  0  0  0  0  0  0  0  0  0  0
   17.1862    9.3737   37.0743 N   0  0  0  0  0  0  0  0  0  0  0  0
   16.4328    9.1260   38.1648 C   0  0  0  0  0  0  0  0  0  0  0  0
   16.2871    9.9941   39.1559 N   0  0  0  0  0  4  0  0  0  0  0  0
   15.8483    7.9308   38.2634 N   0  0  0  0  0  0  0  0  0  0  0  0
   19.2674   13.2929   32.1749 N   0  0  0  0  0  0  0  0  0  0  0  0
   19.8433   13.6706   30.8801 C   0  0  2  0  0  0  0  0  0  0  0  0
   20.0506   15.2144   30.7785 C   0  0  0  0  0  0  0  0  0  0  0  0
   20.6100   15.8727   31.6659 O   0  0  0  0  0  0  0  0  0  0  0  0
   19.1343   13.1223   29.6636 C   0  0  0  0  0  0  0  0  0  0  0  0
   19.6946   15.7707   29.5728 N   0  0  0  0  0  0  0  0  0  0  0  0
   19.3291   17.1765   29.4021 C   0  0  2  0  0  0  0  0  0  0  0  0
   18.1847   17.2210   28.3626 C   0  0  0  0  0  0  0  0  0  0  0  0
   17.9625   16.2773   27.5983 O   0  0  0  0  0  0  0  0  0  0  0  0
   20.5265   17.9788   28.9039 C   0  0  0  0  0  0  0  0  0  0  0  0
   21.7799   17.8251   29.7520 C   0  0  0  0  0  0  0  0  0  0  0  0
   23.0009   18.5335   29.1936 C   0  0  0  0  0  0  0  0  0  0  0  0
   23.7900   19.0815   30.3053 N   0  0  0  0  0  0  0  0  0  0  0  0
   25.0848   19.4333   30.2529 C   0  0  0  0  0  0  0  0  0  0  0  0
   26.0466   18.7345   30.8746 N   0  0  0  0  0  4  0  0  0  0  0  0
   25.4243   20.5158   29.5521 N   0  0  0  0  0  0  0  0  0  0  0  0
   17.4041   18.3533   28.3427 N   0  0  0  0  0  0  0  0  0  0  0  0
   16.2453   18.4466   27.4627 C   0  0  2  0  0  0  0  0  0  0  0  0
   15.5344   19.7624   27.7829 C   0  0  0  0  0  0  0  0  0  0  0  0
   16.0604   20.6502   28.4504 O   0  0  0  0  0  0  0  0  0  0  0  0
   15.3182   17.2594   27.7080 C   0  0  0  0  0  0  0  0  0  0  0  0
   14.2867   17.4627   28.8119 C   0  0  0  0  0  0  0  0  0  0  0  0
   14.9656   17.8741   30.1089 C   0  0  0  0  0  0  0  0  0  0  0  0
   15.0167   19.0232   30.5389 O   0  0  0  0  0  0  0  0  0  0  0  0
   15.6225   16.8637   30.7459 N   0  0  0  0  0  0  0  0  0  0  0  0
   14.2995   19.8924   27.1964 N   0  0  0  0  0  0  0  0  0  0  0  0
   13.9171   21.0585   26.3900 C   0  0  2  0  0  0  0  0  0  0  0  0
   12.3797   20.9336   26.2695 C   0  0  0  0  0  0  0  0  0  0  0  0
   11.7700   20.0660   26.9187 O   0  0  0  0  0  0  0  0  0  0  0  0
   14.6447   21.0250   25.0368 C   0  0  0  0  0  0  0  0  0  0  0  0
   14.1501   22.1025   24.0399 C   0  0  1  0  0  0  0  0  0  0  0  0
   14.8495   23.4391   24.2989 C   0  0  0  0  0  0  0  0  0  0  0  0
   14.3838   21.6653   22.6007 C   0  0  0  0  0  0  0  0  0  0  0  0
   11.6753   21.8138   25.4628 N   0  0  0  0  0  0  0  0  0  0  0  0
   10.2256   21.6177   25.2119 C   0  0  2  0  0  0  0  0  0  0  0  0
    9.7768   20.5021   24.2472 C   0  0  0  0  0  0  0  0  0  0  0  0
   10.0213   20.5392   23.0380 O   0  0  0  0  0  0  0  0  0  0  0  0
    9.7477   22.9753   24.6829 C   0  0  0  0  0  0  0  0  0  0  0  0
   10.7135   23.9496   25.3388 C   0  0  0  0  0  0  0  0  0  0  0  0
   12.0363   23.2106   25.2353 C   0  0  0  0  0  0  0  0  0  0  0  0
    8.9388   19.5628   24.7930 N   0  0  0  0  0  0  0  0  0  0  0  0
    8.4837   18.4168   24.0146 C   0  0  2  0  0  0  0  0  0  0  0  0
    9.5908   18.0493   22.9934 C   0  0  0  0  0  0  0  0  0  0  0  0
    9.7819   18.7169   21.9768 O   0  0  0  0  0  0  0  0  0  0  0  0
    7.1999   18.7847   23.3050 C   0  0  0  0  0  0  0  0  0  0  0  0
   10.3422   16.9440   23.2996 N   0  0  0  0  0  0  0  0  0  0  0  0
   11.0569   16.1859   22.2807 C   0  0  2  0  0  0  0  0  0  0  0  0
   10.1014   15.1603   21.6470 C   0  0  0  0  0  0  0  0  0  0  0  0
    9.4991   14.3363   22.3412 O   0  0  0  0  0  0  0  0  0  0  0  0
   12.3035   15.5119   22.8861 C   0  0  0  0  0  0  0  0  0  0  0  0
   12.3497   14.1337   22.4936 O   0  0  0  0  0  0  0  0  0  0  0  0
   10.0819   15.1405   20.2783 N   0  0  0  0  0  0  0  0  0  0  0  0
    9.1657   14.3165   19.4903 C   0  0  2  0  0  0  0  0  0  0  0  0
    9.5201   14.5007   18.0077 C   0  0  0  0  0  0  0  0  0  0  0  0
    8.8284   14.0399   17.1005 O   0  0  0  0  0  0  0  0  0  0  0  0
    7.6916   14.7384   19.6692 C   0  0  0  0  0  0  0  0  0  0  0  0
    7.3352   15.1415   21.0805 C   0  0  0  0  0  0  0  0  0  0  0  0
    6.0559   15.6164   21.3968 C   0  0  0  0  0  0  0  0  0  0  0  0
    8.2887   15.0418   22.1009 C   0  0  0  0  0  0  0  0  0  0  0  0
    5.7389   15.9876   22.7033 C   0  0  0  0  0  0  0  0  0  0  0  0
    7.9719   15.4156   23.4109 C   0  0  0  0  0  0  0  0  0  0  0  0
    6.6987   15.8890   23.7125 C   0  0  0  0  0  0  0  0  0  0  0  0
   10.6484   15.2447   17.7976 N   0  0  0  0  0  0  0  0  0  0  0  0
   10.7804   16.6859   18.0315 C   0  0  2  0  0  0  0  0  0  0  0  0
   12.2561   16.8993   18.4477 C   0  0  0  0  0  0  0  0  0  0  0  0
   12.5233   17.5312   19.4790 O   0  0  0  0  0  0  0  0  0  0  0  0
    9.7211   17.2746   18.9799 C   0  0  0  0  0  0  0  0  0  0  0  0
    9.4589   18.7496   18.8989 C   0  0  0  0  0  0  0  0  0  0  0  0
    9.2636   19.5102   17.7655 C   0  0  0  0  0  0  0  0  0  0  0  0
    9.2957   19.6369   20.0197 C   0  0  0  0  0  0  0  0  0  0  0  0
    8.9421   20.7883   18.1409 N   0  0  0  0  0  0  0  0  0  0  0  0
    8.9632   20.8942   19.5044 C   0  0  0  0  0  0  0  0  0  0  0  0
    9.3974   19.4890   21.4131 C   0  0  0  0  0  0  0  0  0  0  0  0
    8.6929   22.0003   20.3209 C   0  0  0  0  0  0  0  0  0  0  0  0
    9.1612   20.5929   22.2470 C   0  0  0  0  0  0  0  0  0  0  0  0
    8.8094   21.8283   21.7046 C   0  0  0  0  0  0  0  0  0  0  0  0
   13.2177   16.2766   17.6851 N   0  0  0  0  0  0  0  0  0  0  0  0
   12.9815   16.0027   16.2571 C   0  0  2  0  0  0  0  0  0  0  0  0
   11.5798   15.3642   16.1532 C   0  0  0  0  0  0  0  0  0  0  0  0
   10.7027   15.8396   15.4326 O   0  0  0  0  0  0  0  0  0  0  0  0
   14.0467   15.0454   15.7029 C   0  0  0  0  0  0  0  0  0  0  0  0
   13.7404   14.5419   14.2826 C   0  0  0  0  0  0  0  0  0  0  0  0
   14.3400   15.3540   13.1479 C   0  0  0  0  0  0  0  0  0  0  0  0
   15.4729   14.9716   12.7489 O   0  0  0  0  0  1  0  0  0  0  0  0
   13.6463   16.3310   12.7492 O   0  0  0  0  0  0  0  0  0  0  0  0
   11.4097   14.2623   16.9545 N   0  0  0  0  0  0  0  0  0  0  0  0
   11.3085   12.8984   16.4631 C   0  0  2  0  0  0  0  0  0  0  0  0
   12.0967   11.8727   17.3351 C   0  0  0  0  0  0  0  0  0  0  0  0
   11.5942   11.4723   18.4022 O   0  0  0  0  0  0  0  0  0  0  0  0
   11.5366   12.7141   14.9514 C   0  0  0  0  0  0  0  0  0  0  0  0
   10.5473   11.8098   14.2196 C   0  0  0  0  0  0  0  0  0  0  0  0
    9.0799   11.9659   14.6135 C   0  0  0  0  0  0  0  0  0  0  0  0
    8.7475   12.9900   15.2572 O   0  0  0  0  0  1  0  0  0  0  0  0
    8.3272   11.0236   14.2140 O   0  0  0  0  0  0  0  0  0  0  0  0
   13.3242   11.3658   16.9406 N   0  0  0  0  0  0  0  0  0  0  0  0
   14.4760   10.9141   17.7314 C   0  0  2  0  0  0  0  0  0  0  0  0
   15.4396   12.0824   18.0251 C   0  0  0  0  0  0  0  0  0  0  0  0
   15.9787   12.7777   17.1711 O   0  0  0  0  0  0  0  0  0  0  0  0
   15.1895    9.9057   16.8287 C   0  0  0  0  0  0  0  0  0  0  0  0
   14.8792   10.3986   15.4216 C   0  0  0  0  0  0  0  0  0  0  0  0
   13.5157   11.0671   15.5315 C   0  0  0  0  0  0  0  0  0  0  0  0
   15.7688   12.2374   19.3513 N   0  0  0  0  0  0  0  0  0  0  0  0
  1  2  2  0
  1  3  1  0
  1  4  1  0
  5  4  1  6
  5  6  1  0
  5  8  1  0
  6  7  2  0
  6 11  1  0
  8  9  1  1
  8 10  1  0
 11 12  1  0
 11 17  1  0
 12 13  1  6
 12 15  1  0
 13 14  2  0
 13 18  1  0
 15 16  1  0
 16 17  1  0
 18 19  1  0
 19 20  1  0
 19 22  1  6
 20 21  2  0
 20 26  1  0
 22 23  1  0
 23 24  1  0
 24 25  1  0
 26 27  1  0
 27 28  1  0
 27 30  1  1
 28 29  2  0
 28 37  1  0
 30 31  1  0
 31 32  1  0
 32 33  1  0
 33 34  1  0
 34 35  2  0
 34 36  1  0
 37 38  1  0
 38 39  1  0
 38 41  1  6
 39 40  2  0
 39 42  1  0
 42 43  1  0
 43 44  1  0
 43 46  1  6
 44 45  2  0
 44 53  1  0
 46 47  1  0
 47 48  1  0
 48 49  1  0
 49 50  1  0
 50 51  2  0
 50 52  1  0
 53 54  1  0
 54 55  1  0
 54 57  1  1
 55 56  2  0
 55 62  1  0
 57 58  1  0
 58 59  1  0
 59 60  2  0
 59 61  1  0
 62 63  1  0
 63 64  1  0
 63 66  1  6
 64 65  2  0
 64 70  1  0
 66 67  1  0
 67 68  1  1
 67 69  1  0
 70 71  1  0
 70 76  1  0
 71 72  1  6
 71 74  1  0
 72 73  2  0
 72 77  1  0
 74 75  1  0
 75 76  1  0
 77 78  1  0
 78 79  1  0
 78 81  1  6
 79 80  2  0
 79 82  1  0
 82 83  1  0
 83 84  1  0
 83 86  1  1
 84 85  2  0
 84 88  1  0
 86 87  1  0
 88 89  1  0
 89 90  1  0
 89 92  1  6
 90 91  2  0
 90 99  1  0
 92 93  1  0
 93 94  2  0
 93 95  1  0
 94 96  1  0
 95 97  2  0
 96 98  2  0
 97 98  1  0
 99100  1  0
100101  1  0
100103  1  1
101102  2  0
101113  1  0
103104  1  0
104105  2  0
104106  1  0
105107  1  0
106108  2  0
106109  1  0
107108  1  0
108110  1  0
109111  2  0
110112  2  0
111112  1  0
113114  1  0
114115  1  0
114117  1  1
115116  2  0
115122  1  0
117118  1  0
118119  1  0
119120  1  0
119121  2  0
122123  1  0
123124  1  0
123126  1  6
124125  2  0
124131  1  0
126127  1  0
127128  1  0
128129  1  0
128130  2  0
131132  1  0
131137  1  0
132133  1  6
132135  1  0
133134  2  0
133138  1  0
135136  1  0
136137  1  0
M  CHG  4  35   1  51   1 120  -1 129  -1
M  END
$$$$
