
     RDKit          3D

138143  0  0  0  0  0  0  0  0999 V2000
   23.8163    9.9314   38.3167 C   0  0  0  0  0  0  0  0  0  0  0  0
   23.9762    9.8455   37.1034 O   0  0  0  0  0  0  0  0  0  0  0  0
   24.9723    9.8050   39.2731 C   0  0  0  0  0  0  0  0  0  0  0  0
   22.5984   10.1404   38.9247 N   0  0  0  0  0  0  0  0  0  0  0  0
   21.4671   10.7562   38.2219 C   0  0  2  0  0  0  0  0  0  0  0  0
   21.7970   11.8186   37.1215 C   0  0  0  0  0  0  0  0  0  0  0  0
   22.7641   12.5743   37.3078 O   0  0  0  0  0  0  0  0  0  0  0  0
   20.4229   11.2594   39.2606 C   0  0  1  0  0  0  0  0  0  0  0  0
   19.1062   11.7258   38.6344 C   0  0  0  0  0  0  0  0  0  0  0  0
   20.1412   10.2204   40.3552 C   0  0  0  0  0  0  0  0  0  0  0  0
   21.1066   11.8893   35.9247 N   0  0  0  0  0  0  0  0  0  0  0  0
   21.5362   12.8605   34.9015 C   0  0  2  0  0  0  0  0  0  0  0  0
   20.9023   14.2623   34.8793 C   0  0  0  0  0  0  0  0  0  0  0  0
   19.6759   14.3703   34.8406 O   0  0  0  0  0  0  0  0  0  0  0  0
   21.1968   12.1604   33.5823 C   0  0  0  0  0  0  0  0  0  0  0  0
   19.9536   11.3575   33.9322 C   0  0  0  0  0  0  0  0  0  0  0  0
   20.2611   10.8650   35.3359 C   0  0  0  0  0  0  0  0  0  0  0  0
   21.6896   15.3605   35.0861 N   0  0  0  0  0  0  0  0  0  0  0  0
   21.1007   16.6949   35.3132 C   0  0  2  0  0  0  0  0  0  0  0  0
   20.2588   17.3331   34.1584 C   0  0  0  0  0  0  0  0  0  0  0  0
   19.0268   17.3056   34.1524 O   0  0  0  0  0  0  0  0  0  0  0  0
   22.1647   17.7040   35.7884 C   0  0  0  0  0  0  0  0  0  0  0  0
   21.5698   19.0767   36.1184 C   0  0  0  0  0  0  0  0  0  0  0  0
   21.6967   19.4839   37.8940 S   0  0  0  0  0  0  0  0  0  0  0  0
   21.9486   17.8264   38.5658 C   0  0  0  0  0  0  0  0  0  0  0  0
   20.9567   17.7687   33.0668 N   0  0  0  0  0  0  0  0  0  0  0  0
   20.3710   18.5247   31.9556 C   0  0  2  0  0  0  0  0  0  0  0  0
   19.0629   19.1728   32.4762 C   0  0  0  0  0  0  0  0  0  0  0  0
   18.9844   19.7187   33.5718 O   0  0  0  0  0  0  0  0  0  0  0  0
   20.0442   17.6760   30.7169 C   0  0  0  0  0  0  0  0  0  0  0  0
   21.1199   17.5958   29.6407 C   0  0  0  0  0  0  0  0  0  0  0  0
   22.1432   16.5252   30.0283 C   0  0  0  0  0  0  0  0  0  0  0  0
   22.0699   15.3836   29.1303 N   0  0  0  0  0  0  0  0  0  0  0  0
   22.8457   15.2015   28.0426 C   0  0  0  0  0  0  0  0  0  0  0  0
   24.1683   15.2828   28.0755 N   0  0  0  0  0  4  0  0  0  0  0  0
   22.2424   14.9754   26.8743 N   0  0  0  0  0  0  0  0  0  0  0  0
   17.9891   19.0736   31.6168 N   0  0  0  0  0  0  0  0  0  0  0  0
   17.4554   20.1437   30.7678 C   0  0  2  0  0  0  0  0  0  0  0  0
   16.3505   19.6077   29.8043 C   0  0  0  0  0  0  0  0  0  0  0  0
   15.6632   18.6111   30.0654 O   0  0  0  0  0  0  0  0  0  0  0  0
   18.4846   20.9693   30.0312 C   0  0  0  0  0  0  0  0  0  0  0  0
   16.0977   20.4015   28.7108 N   0  0  0  0  0  0  0  0  0  0  0  0
   15.0389   20.1329   27.7382 C   0  0  2  0  0  0  0  0  0  0  0  0
   13.9976   21.2676   27.8815 C   0  0  0  0  0  0  0  0  0  0  0  0
   13.1792   21.2871   28.8055 O   0  0  0  0  0  0  0  0  0  0  0  0
   14.3901   18.7820   28.0206 C   0  0  0  0  0  0  0  0  0  0  0  0
   13.2503   18.4255   27.0784 C   0  0  0  0  0  0  0  0  0  0  0  0
   12.6271   17.0663   27.3406 C   0  0  0  0  0  0  0  0  0  0  0  0
   11.4124   17.2413   28.1485 N   0  0  0  0  0  0  0  0  0  0  0  0
   10.1626   16.9314   27.7676 C   0  0  0  0  0  0  0  0  0  0  0  0
    9.1007   17.6788   28.1049 N   0  0  0  0  0  4  0  0  0  0  0  0
    9.9740   15.8415   27.0227 N   0  0  0  0  0  0  0  0  0  0  0  0
   14.0389   22.2736   26.9443 N   0  0  0  0  0  0  0  0  0  0  0  0
   12.8902   23.1468   26.7346 C   0  0  2  0  0  0  0  0  0  0  0  0
   12.4229   22.9469   25.2921 C   0  0  0  0  0  0  0  0  0  0  0  0
   13.1812   23.0617   24.3318 O   0  0  0  0  0  0  0  0  0  0  0  0
   13.2990   24.5979   26.9726 C   0  0  0  0  0  0  0  0  0  0  0  0
   14.5948   25.0238   26.2918 C   0  0  0  0  0  0  0  0  0  0  0  0
   15.7615   24.9422   27.2638 C   0  0  0  0  0  0  0  0  0  0  0  0
   15.9112   25.6704   28.2411 O   0  0  0  0  0  0  0  0  0  0  0  0
   16.7198   24.0363   26.9185 N   0  0  0  0  0  0  0  0  0  0  0  0
   11.1124   22.5537   25.1742 N   0  0  0  0  0  0  0  0  0  0  0  0
   10.1199   22.7537   26.2378 C   0  0  2  0  0  0  0  0  0  0  0  0
    8.7640   22.6333   25.5022 C   0  0  0  0  0  0  0  0  0  0  0  0
    8.3413   23.5768   24.8116 O   0  0  0  0  0  0  0  0  0  0  0  0
   10.3356   24.1186   26.9102 C   0  0  0  0  0  0  0  0  0  0  0  0
    9.2349   25.1558   26.5752 C   0  0  1  0  0  0  0  0  0  0  0  0
    9.1081   25.3381   25.0608 C   0  0  0  0  0  0  0  0  0  0  0  0
    7.8933   24.7393   27.1615 C   0  0  0  0  0  0  0  0  0  0  0  0
    8.0346   21.4572   25.5841 N   0  0  0  0  0  0  0  0  0  0  0  0
    7.9721   20.5221   24.4332 C   0  0  2  0  0  0  0  0  0  0  0  0
    7.0943   20.8863   23.2193 C   0  0  0  0  0  0  0  0  0  0  0  0
    5.9606   21.3579   23.3441 O   0  0  0  0  0  0  0  0  0  0  0  0
    7.4800   19.2047   25.0444 C   0  0  0  0  0  0  0  0  0  0  0  0
    7.9894   19.2877   26.4747 C   0  0  0  0  0  0  0  0  0  0  0  0
    7.7352   20.7440   26.8230 C   0  0  0  0  0  0  0  0  0  0  0  0
    7.5874   20.4857   22.0033 N   0  0  0  0  0  0  0  0  0  0  0  0
    6.9095   20.8407   20.7620 C   0  0  2  0  0  0  0  0  0  0  0  0
    7.7196   20.2532   19.5778 C   0  0  0  0  0  0  0  0  0  0  0  0
    7.4576   20.5379   18.4091 O   0  0  0  0  0  0  0  0  0  0  0  0
    6.8281   22.3474   20.6613 C   0  0  0  0  0  0  0  0  0  0  0  0
    8.7446   19.4078   19.9170 N   0  0  0  0  0  0  0  0  0  0  0  0
    9.7409   18.9698   18.9479 C   0  0  2  0  0  0  0  0  0  0  0  0
    9.5624   17.4653   18.6805 C   0  0  0  0  0  0  0  0  0  0  0  0
    9.2288   17.0511   17.5667 O   0  0  0  0  0  0  0  0  0  0  0  0
   11.1606   19.2997   19.4484 C   0  0  0  0  0  0  0  0  0  0  0  0
   11.1216   20.4584   20.2918 O   0  0  0  0  0  0  0  0  0  0  0  0
    9.6605   16.6560   19.7802 N   0  0  0  0  0  0  0  0  0  0  0  0
    9.7858   15.2004   19.7094 C   0  0  2  0  0  0  0  0  0  0  0  0
    9.9552   14.8114   18.2338 C   0  0  0  0  0  0  0  0  0  0  0  0
    9.0568   14.9536   17.4053 O   0  0  0  0  0  0  0  0  0  0  0  0
    8.5300   14.4744   20.2377 C   0  0  0  0  0  0  0  0  0  0  0  0
    7.5286   14.1198   19.1640 C   0  0  0  0  0  0  0  0  0  0  0  0
    6.3621   13.4068   19.4689 C   0  0  0  0  0  0  0  0  0  0  0  0
    7.7555   14.5058   17.8375 C   0  0  0  0  0  0  0  0  0  0  0  0
    5.4454   13.0831   18.4687 C   0  0  0  0  0  0  0  0  0  0  0  0
    6.8375   14.1800   16.8338 C   0  0  0  0  0  0  0  0  0  0  0  0
    5.6838   13.4686   17.1482 C   0  0  0  0  0  0  0  0  0  0  0  0
   11.1975   14.3271   17.9291 N   0  0  0  0  0  0  0  0  0  0  0  0
   12.4341   14.6192   18.6604 C   0  0  2  0  0  0  0  0  0  0  0  0
   13.2313   13.2922   18.6626 C   0  0  0  0  0  0  0  0  0  0  0  0
   12.8916   12.3673   19.4131 O   0  0  0  0  0  0  0  0  0  0  0  0
   12.2184   15.2779   20.0344 C   0  0  0  0  0  0  0  0  0  0  0  0
   13.3236   15.1608   21.0422 C   0  0  0  0  0  0  0  0  0  0  0  0
   13.5146   14.1604   21.9718 C   0  0  0  0  0  0  0  0  0  0  0  0
   14.4400   16.0590   21.1732 C   0  0  0  0  0  0  0  0  0  0  0  0
   14.7045   14.3771   22.6160 N   0  0  0  0  0  0  0  0  0  0  0  0
   15.2823   15.5282   22.1559 C   0  0  0  0  0  0  0  0  0  0  0  0
   14.8107   17.2632   20.5516 C   0  0  0  0  0  0  0  0  0  0  0  0
   16.4952   16.1285   22.5190 C   0  0  0  0  0  0  0  0  0  0  0  0
   16.0066   17.8966   20.9237 C   0  0  0  0  0  0  0  0  0  0  0  0
   16.8367   17.3312   21.8909 C   0  0  0  0  0  0  0  0  0  0  0  0
   14.2420   13.1678   17.7370 N   0  0  0  0  0  0  0  0  0  0  0  0
   14.2149   12.0862   16.7373 C   0  0  2  0  0  0  0  0  0  0  0  0
   12.8158   12.1190   16.0854 C   0  0  0  0  0  0  0  0  0  0  0  0
   11.8542   12.6496   16.6407 O   0  0  0  0  0  0  0  0  0  0  0  0
   14.4624   10.7241   17.4020 C   0  0  0  0  0  0  0  0  0  0  0  0
   15.6787   10.7121   18.3427 C   0  0  0  0  0  0  0  0  0  0  0  0
   16.5374    9.4602   18.2998 C   0  0  0  0  0  0  0  0  0  0  0  0
   17.5405    9.4659   19.0629 O   0  0  0  0  0  1  0  0  0  0  0  0
   16.1614    8.5672   17.4899 O   0  0  0  0  0  0  0  0  0  0  0  0
   12.7524   11.4803   14.8717 N   0  0  0  0  0  0  0  0  0  0  0  0
   12.2264   12.0786   13.6563 C   0  0  2  0  0  0  0  0  0  0  0  0
   12.2031   11.0923   12.4478 C   0  0  0  0  0  0  0  0  0  0  0  0
   11.7315   11.4769   11.3610 O   0  0  0  0  0  0  0  0  0  0  0  0
   12.7877   13.4671   13.2978 C   0  0  0  0  0  0  0  0  0  0  0  0
   14.2356   13.5113   12.8146 C   0  0  0  0  0  0  0  0  0  0  0  0
   14.5884   14.6505   11.8602 C   0  0  0  0  0  0  0  0  0  0  0  0
   15.7975   14.8321   11.5797 O   0  0  0  0  0  1  0  0  0  0  0  0
   13.5858   15.2960   11.4218 O   0  0  0  0  0  0  0  0  0  0  0  0
   12.7242    9.8117   12.5368 N   0  0  0  0  0  0  0  0  0  0  0  0
   14.1134    9.3438   12.6217 C   0  0  2  0  0  0  0  0  0  0  0  0
   14.7096    9.1181   11.2170 C   0  0  0  0  0  0  0  0  0  0  0  0
   14.2944    9.6390   10.1876 O   0  0  0  0  0  0  0  0  0  0  0  0
   14.0207    7.9945   13.3371 C   0  0  0  0  0  0  0  0  0  0  0  0
   12.6491    7.4676   12.9368 C   0  0  0  0  0  0  0  0  0  0  0  0
   11.7954    8.7113   12.7309 C   0  0  0  0  0  0  0  0  0  0  0  0
   15.7034    8.1693   11.1593 N   0  0  0  0  0  0  0  0  0  0  0  0
  1  2  2  0
  1  3  1  0
  1  4  1  0
  5  4  1  1
  5  6  1  0
  5  8  1  0
  6  7  2  0
  6 11  1  0
  8  9  1  6
  8 10  1  0
 11 12  1  0
 11 17  1  0
 12 13  1  1
 12 15  1  0
 13 14  2  0
 13 18  1  0
 15 16  1  0
 16 17  1  0
 18 19  1  0
 19 20  1  0
 19 22  1  6
 20 21  2  0
 20 26  1  0
 22 23  1  0
 23 24  1  0
 24 25  1  0
 26 27  1  0
 27 28  1  0
 27 30  1  6
 28 29  2  0
 28 37  1  0
 30 31  1  0
 31 32  1  0
 32 33  1  0
 33 34  1  0
 34 35  2  0
 34 36  1  0
 37 38  1  0
 38 39  1  0
 38 41  1  6
 39 40  2  0
 39 42  1  0
 42 43  1  0
 43 44  1  0
 43 46  1  1
 44 45  2  0
 44 53  1  0
 46 47  1  0
 47 48  1  0
 48 49  1  0
 49 50  1  0
 50 51  2  0
 50 52  1  0
 53 54  1  0
 54 55  1  0
 54 57  1  6
 55 56  2  0
 55 62  1  0
 57 58  1  0
 58 59  1  0
 59 60  2  0
 59 61  1  0
 62 63  1  0
 63 64  1  0
 63 66  1  6
 64 65  2  0
 64 70  1  0
 66 67  1  0
 67 68  1  6
 67 69  1  0
 70 71  1  0
 70 76  1  0
 71 72  1  6
 71 74  1  0
 72 73  2  0
 72 77  1  0
 74 75  1  0
 75 76  1  0
 77 78  1  0
 78 79  1  0
 78 81  1  6
 79 80  2  0
 79 82  1  0
 82 83  1  0
 83 84  1  0
 83 86  1  1
 84 85  2  0
 84 88  1  0
 86 87  1  0
 88 89  1  0
 89 90  1  0
 89 92  1  6
 90 91  2  0
 90 99  1  0
 92 93  1  0
 93 94  2  0
 93 95  1  0
 94 96  1  0
 95 97  2  0
 96 98  2  0
 97 98  1  0
 99100  1  0
100101  1  0
100103  1  1
101102  2  0
101113  1  0
103104  1  0
104105  2  0
104106  1  0
105107  1  0
106108  2  0
106109  1  0
107108  1  0
108110  1  0
109111  2  0
110112  2  0
111112  1  0
113114  1  0
114115  1  0
114117  1  1
115116  2  0
115122  1  0
117118  1  0
118119  1  0
119120  1  0
119121  2  0
122123  1  0
123124  1  0
123126  1  6
124125  2  0
124131  1  0
126127  1  0
127128  1  0
128129  1  0
128130  2  0
131132  1  0
131137  1  0
132133  1  6
132135  1  0
133134  2  0
133138  1  0
135136  1  0
136137  1  0
M  CHG  4  35   1  51   1 120  -1 129  -1
M  END
$$$$
