
     RDKit          3D

 37 42  0  0  0  0  0  0  0  0999 V2000
   25.1144  -13.1462   11.1749 N   0  0  0  0  0  0  0  0  0  0  0  0
   21.1968  -16.4785   10.1938 N   0  0  0  0  0  0  0  0  0  0  0  0
   28.2090   -2.1128    9.9118 C   0  0  0  0  0  0  0  0  0  0  0  0
   20.9753  -15.6959   12.1816 N   0  0  0  0  0  0  0  0  0  0  0  0
   22.9777  -14.8862   10.8897 N   0  0  0  0  0  0  0  0  0  0  0  0
   28.0615   -7.8868    8.3630 C   0  0  0  0  0  0  0  0  0  0  0  0
   27.5323   -9.0037    9.1537 C   0  0  0  0  0  0  0  0  0  0  0  0
   29.3939   -5.3796    7.1962 O   0  0  0  0  0  0  0  0  0  0  0  0
   27.0718   -3.8770   11.0211 C   0  0  0  0  0  0  0  0  0  0  0  0
   27.4086   -2.5393   10.9355 C   0  0  0  0  0  0  0  0  0  0  0  0
   27.9452  -10.2956    8.7893 C   0  0  0  0  0  0  0  0  0  0  0  0
   28.6912   -3.0037    8.9505 C   0  0  0  0  0  0  0  0  0  0  0  0
   28.3444   -4.3418    9.0489 C   0  0  0  0  0  0  0  0  0  0  0  0
   28.6616   -5.5046    8.2315 C   0  0  0  0  0  0  0  0  0  0  0  0
   28.0201   -6.6430    8.8130 C   0  0  0  0  0  0  0  0  0  0  0  0
   26.6736  -11.2368   10.5873 C   0  0  0  0  0  0  0  0  0  0  0  0
   27.5184  -11.3877    9.5000 C   0  0  0  0  0  0  0  0  0  0  0  0
   27.1020  -12.7959   12.3010 O   0  0  0  0  0  0  0  0  0  0  0  0
   26.3034  -12.4066   11.3707 C   0  0  0  0  0  0  0  0  0  0  0  0
   24.2626  -13.0163   10.0142 C   0  0  0  0  0  0  0  0  0  0  0  0
   22.9515  -13.7075   10.0832 C   0  0  0  0  0  0  0  0  0  0  0  0
   21.7605  -15.6425   11.0995 C   0  0  0  0  0  0  0  0  0  0  0  0
   19.9476  -16.5454   11.9544 C   0  0  0  0  0  0  0  0  0  0  0  0
   18.8493  -16.9884   12.6939 C   0  0  0  0  0  0  0  0  0  0  0  0
   17.9325  -17.8989   12.1717 C   0  0  0  0  0  0  0  0  0  0  0  0
   18.0877  -18.3906   10.8970 C   0  0  0  0  0  0  0  0  0  0  0  0
   19.1648  -17.9611   10.1617 C   0  0  0  0  0  0  0  0  0  0  0  0
   20.0833  -17.0491   10.6854 C   0  0  0  0  0  0  0  0  0  0  0  0
   24.2054  -15.3219   11.5110 C   0  0  0  0  0  0  0  0  0  0  0  0
   24.7637  -14.1077   12.2397 C   0  0  0  0  0  0  0  0  0  0  0  0
   26.2501   -9.9657   10.9636 C   0  0  0  0  0  0  0  0  0  0  0  0
   26.6997   -8.8691   10.2213 C   0  0  0  0  0  0  0  0  0  0  0  0
   27.3416   -6.1738    9.9440 O   0  0  0  0  0  0  0  0  0  0  0  0
   27.5322   -4.7882   10.0865 C   0  0  0  0  0  0  0  0  0  0  0  0
   26.1977   -4.2815   12.0992 C   0  0  0  0  0  0  0  0  0  0  0  0
   25.7539   -3.3837   12.9260 O   0  0  0  0  0  0  0  0  0  0  0  0
   25.8111   -5.6137   12.2814 N   0  0  0  0  0  0  0  0  0  0  0  0
  1 19  1  0
 20  1  1  0
  1 30  1  0
 22  2  1  0
  2 28  1  0
  3 10  2  0
 12  3  1  0
 22  4  2  0
  4 23  1  0
 21  5  1  0
  5 22  1  0
  5 29  1  0
  7  6  1  0
  6 15  2  3
 11  7  2  0
  7 32  1  0
 14  8  2  0
  9 10  1  0
 34  9  2  0
  9 35  1  0
 17 11  1  0
 13 12  2  0
 14 13  1  0
 13 34  1  0
 15 14  1  0
 15 33  1  0
 16 17  2  0
 19 16  1  0
 16 31  1  0
 19 18  2  0
 20 21  1  0
 23 24  1  0
 23 28  2  0
 24 25  2  0
 25 26  1  0
 26 27  2  0
 27 28  1  0
 29 30  1  0
 31 32  2  0
 33 34  1  0
 35 36  2  0
 35 37  1  0
M  END
$$$$
