
     RDKit          3D

 37 42  0  0  0  0  0  0  0  0999 V2000
   23.8722  -12.5978   10.0132 N   0  0  0  0  0  0  0  0  0  0  0  0
   22.5641  -17.1246   12.2966 N   0  0  0  0  0  0  0  0  0  0  0  0
   28.6689   -1.9438   10.2449 C   0  0  0  0  0  0  0  0  0  0  0  0
   24.4403  -17.3638   11.2789 N   0  0  0  0  0  0  0  0  0  0  0  0
   23.3981  -15.0761   11.1565 N   0  0  0  0  0  0  0  0  0  0  0  0
   24.7199   -6.2170   11.6251 C   0  0  0  0  0  0  0  0  0  0  0  0
   24.6210   -7.5566   11.0346 C   0  0  0  0  0  0  0  0  0  0  0  0
   25.3998   -3.4589   12.7882 O   0  0  0  0  0  0  0  0  0  0  0  0
   28.3533   -4.0268    9.1503 C   0  0  0  0  0  0  0  0  0  0  0  0
   29.0209   -2.8213    9.2566 C   0  0  0  0  0  0  0  0  0  0  0  0
   23.4355   -8.2717   11.2698 C   0  0  0  0  0  0  0  0  0  0  0  0
   27.6482   -2.2440   11.1496 C   0  0  0  0  0  0  0  0  0  0  0  0
   26.9883   -3.4568   11.0311 C   0  0  0  0  0  0  0  0  0  0  0  0
   25.9099   -4.0704   11.7935 C   0  0  0  0  0  0  0  0  0  0  0  0
   25.6309   -5.3488   11.2159 C   0  0  0  0  0  0  0  0  0  0  0  0
   24.2383  -10.0914    9.9357 C   0  0  0  0  0  0  0  0  0  0  0  0
   23.2556   -9.5171   10.7252 C   0  0  0  0  0  0  0  0  0  0  0  0
   23.8560  -11.4175    8.0262 O   0  0  0  0  0  0  0  0  0  0  0  0
   23.9848  -11.3788    9.3055 C   0  0  0  0  0  0  0  0  0  0  0  0
   23.7730  -12.6917   11.4523 C   0  0  0  0  0  0  0  0  0  0  0  0
   23.8829  -14.0543   12.0290 C   0  0  0  0  0  0  0  0  0  0  0  0
   23.4876  -16.4657   11.5551 C   0  0  0  0  0  0  0  0  0  0  0  0
   24.1167  -18.5533   11.8353 C   0  0  0  0  0  0  0  0  0  0  0  0
   24.7088  -19.8170   11.8810 C   0  0  0  0  0  0  0  0  0  0  0  0
   24.1141  -20.8817   12.5555 C   0  0  0  0  0  0  0  0  0  0  0  0
   22.9128  -20.7126   13.2028 C   0  0  0  0  0  0  0  0  0  0  0  0
   22.3225  -19.4736   13.1636 C   0  0  0  0  0  0  0  0  0  0  0  0
   22.9184  -18.4072   12.4874 C   0  0  0  0  0  0  0  0  0  0  0  0
   22.8331  -14.7363    9.8726 C   0  0  0  0  0  0  0  0  0  0  0  0
   23.8462  -13.8259    9.1933 C   0  0  0  0  0  0  0  0  0  0  0  0
   25.4219   -9.4011    9.6924 C   0  0  0  0  0  0  0  0  0  0  0  0
   25.5799   -8.1330   10.2604 C   0  0  0  0  0  0  0  0  0  0  0  0
   26.5154   -5.4930   10.1405 O   0  0  0  0  0  0  0  0  0  0  0  0
   27.3362   -4.3571   10.0290 C   0  0  0  0  0  0  0  0  0  0  0  0
   28.7772   -4.9397    8.1126 C   0  0  0  0  0  0  0  0  0  0  0  0
   29.7161   -4.5753    7.2926 O   0  0  0  0  0  0  0  0  0  0  0  0
   28.2081   -6.2090    7.9626 N   0  0  0  0  0  0  0  0  0  0  0  0
  1 19  1  0
 20  1  1  0
  1 30  1  0
 22  2  1  0
  2 28  1  0
  3 10  2  0
 12  3  1  0
 22  4  2  0
  4 23  1  0
 21  5  1  0
  5 22  1  0
  5 29  1  0
  7  6  1  0
  6 15  2  3
 11  7  2  0
  7 32  1  0
 14  8  2  0
  9 10  1  0
 34  9  2  0
  9 35  1  0
 17 11  1  0
 13 12  2  0
 14 13  1  0
 13 34  1  0
 15 14  1  0
 15 33  1  0
 16 17  2  0
 19 16  1  0
 16 31  1  0
 19 18  2  0
 20 21  1  0
 23 24  1  0
 23 28  2  0
 24 25  2  0
 25 26  1  0
 26 27  2  0
 27 28  1  0
 29 30  1  0
 31 32  2  0
 33 34  1  0
 35 36  2  0
 35 37  1  0
M  END
$$$$
