
     RDKit          3D

 37 42  0  0  0  0  0  0  0  0999 V2000
   25.2027  -13.0973   10.7678 N   0  0  0  0  0  0  0  0  0  0  0  0
   21.2941  -16.5236   10.4926 N   0  0  0  0  0  0  0  0  0  0  0  0
   28.2485   -2.0652    9.8357 C   0  0  0  0  0  0  0  0  0  0  0  0
   20.7335  -15.0089   11.9084 N   0  0  0  0  0  0  0  0  0  0  0  0
   22.8957  -14.6284   10.6778 N   0  0  0  0  0  0  0  0  0  0  0  0
   28.0390   -7.7574    8.0153 C   0  0  0  0  0  0  0  0  0  0  0  0
   27.5859   -8.9181    8.7901 C   0  0  0  0  0  0  0  0  0  0  0  0
   29.4202   -5.2180    6.9829 O   0  0  0  0  0  0  0  0  0  0  0  0
   27.0735   -3.8628   10.8478 C   0  0  0  0  0  0  0  0  0  0  0  0
   27.4300   -2.5276   10.8290 C   0  0  0  0  0  0  0  0  0  0  0  0
   27.4811  -10.1403    8.1065 C   0  0  0  0  0  0  0  0  0  0  0  0
   28.7297   -2.9170    8.8390 C   0  0  0  0  0  0  0  0  0  0  0  0
   28.3631   -4.2530    8.8704 C   0  0  0  0  0  0  0  0  0  0  0  0
   28.6739   -5.3806    8.0028 C   0  0  0  0  0  0  0  0  0  0  0  0
   28.0095   -6.5357    8.5228 C   0  0  0  0  0  0  0  0  0  0  0  0
   26.8004  -11.2391   10.1226 C   0  0  0  0  0  0  0  0  0  0  0  0
   27.0946  -11.2765    8.7696 C   0  0  0  0  0  0  0  0  0  0  0  0
   27.3881  -13.0444   11.5177 O   0  0  0  0  0  0  0  0  0  0  0  0
   26.4721  -12.4764   10.8156 C   0  0  0  0  0  0  0  0  0  0  0  0
   24.1452  -12.7080    9.8624 C   0  0  0  0  0  0  0  0  0  0  0  0
   22.8165  -13.3226   10.1041 C   0  0  0  0  0  0  0  0  0  0  0  0
   21.6814  -15.3382   11.0233 C   0  0  0  0  0  0  0  0  0  0  0  0
   19.7793  -15.9672   11.9280 C   0  0  0  0  0  0  0  0  0  0  0  0
   18.5882  -16.1621   12.6301 C   0  0  0  0  0  0  0  0  0  0  0  0
   17.7926  -17.2881   12.4267 C   0  0  0  0  0  0  0  0  0  0  0  0
   18.1649  -18.2490   11.5163 C   0  0  0  0  0  0  0  0  0  0  0  0
   19.3346  -18.0665   10.8208 C   0  0  0  0  0  0  0  0  0  0  0  0
   20.1316  -16.9385   11.0252 C   0  0  0  0  0  0  0  0  0  0  0  0
   24.1778  -15.2411   10.9310 C   0  0  0  0  0  0  0  0  0  0  0  0
   24.9895  -14.2152   11.7091 C   0  0  0  0  0  0  0  0  0  0  0  0
   26.8951  -10.0377   10.8186 C   0  0  0  0  0  0  0  0  0  0  0  0
   27.2909   -8.8938   10.1181 C   0  0  0  0  0  0  0  0  0  0  0  0
   27.3242   -6.1102    9.6669 O   0  0  0  0  0  0  0  0  0  0  0  0
   27.5323   -4.7358    9.8766 C   0  0  0  0  0  0  0  0  0  0  0  0
   26.1810   -4.3047   11.8956 C   0  0  0  0  0  0  0  0  0  0  0  0
   25.7132   -3.4344   12.7386 O   0  0  0  0  0  0  0  0  0  0  0  0
   25.8014   -5.6445   12.0316 N   0  0  0  0  0  0  0  0  0  0  0  0
  1 19  1  0
 20  1  1  0
  1 30  1  0
 22  2  1  0
  2 28  1  0
  3 10  2  0
 12  3  1  0
 22  4  2  0
  4 23  1  0
 21  5  1  0
  5 22  1  0
  5 29  1  0
  7  6  1  0
  6 15  2  3
 11  7  2  0
  7 32  1  0
 14  8  2  0
  9 10  1  0
 34  9  2  0
  9 35  1  0
 17 11  1  0
 13 12  2  0
 14 13  1  0
 13 34  1  0
 15 14  1  0
 15 33  1  0
 16 17  2  0
 19 16  1  0
 16 31  1  0
 19 18  2  0
 20 21  1  0
 23 24  1  0
 23 28  2  0
 24 25  2  0
 25 26  1  0
 26 27  2  0
 27 28  1  0
 29 30  1  0
 31 32  2  0
 33 34  1  0
 35 36  2  0
 35 37  1  0
M  END
$$$$
