
     RDKit          3D

 37 42  0  0  0  0  0  0  0  0999 V2000
   26.3249  -11.8282    7.7970 N   0  0  0  0  0  0  0  0  0  0  0  0
   23.6077  -15.5375    9.5013 N   0  0  0  0  0  0  0  0  0  0  0  0
   27.1095   -2.0977   11.9598 C   0  0  0  0  0  0  0  0  0  0  0  0
   22.5222  -14.0922   10.6614 N   0  0  0  0  0  0  0  0  0  0  0  0
   24.3518  -13.1834    9.1914 N   0  0  0  0  0  0  0  0  0  0  0  0
   27.2430   -5.4004    6.9765 C   0  0  0  0  0  0  0  0  0  0  0  0
   27.2598   -6.8647    6.8842 C   0  0  0  0  0  0  0  0  0  0  0  0
   27.6716   -2.4251    7.5977 O   0  0  0  0  0  0  0  0  0  0  0  0
   26.7308   -4.4332   11.7646 C   0  0  0  0  0  0  0  0  0  0  0  0
   26.8140   -3.2970   12.5470 C   0  0  0  0  0  0  0  0  0  0  0  0
   27.5500   -7.5750    8.0603 C   0  0  0  0  0  0  0  0  0  0  0  0
   27.3275   -1.9996   10.5838 C   0  0  0  0  0  0  0  0  0  0  0  0
   27.2400   -3.1472    9.8120 C   0  0  0  0  0  0  0  0  0  0  0  0
   27.3990   -3.3893    8.3848 C   0  0  0  0  0  0  0  0  0  0  0  0
   27.1899   -4.7841    8.1463 C   0  0  0  0  0  0  0  0  0  0  0  0
   27.2720   -9.6538    6.9041 C   0  0  0  0  0  0  0  0  0  0  0  0
   27.5534   -8.9461    8.0612 C   0  0  0  0  0  0  0  0  0  0  0  0
   27.9882  -11.7827    6.1930 O   0  0  0  0  0  0  0  0  0  0  0  0
   27.2032  -11.1069    6.9558 C   0  0  0  0  0  0  0  0  0  0  0  0
   26.1996  -11.6027    9.2194 C   0  0  0  0  0  0  0  0  0  0  0  0
   25.3943  -12.5962    9.9716 C   0  0  0  0  0  0  0  0  0  0  0  0
   23.5121  -14.2123    9.7692 C   0  0  0  0  0  0  0  0  0  0  0  0
   22.0143  -15.3139   10.9421 C   0  0  0  0  0  0  0  0  0  0  0  0
   21.0011  -15.7963   11.7730 C   0  0  0  0  0  0  0  0  0  0  0  0
   20.7016  -17.1551   11.8515 C   0  0  0  0  0  0  0  0  0  0  0  0
   21.4054  -18.0681   11.1020 C   0  0  0  0  0  0  0  0  0  0  0  0
   22.4038  -17.6037   10.2819 C   0  0  0  0  0  0  0  0  0  0  0  0
   22.7038  -16.2423   10.2037 C   0  0  0  0  0  0  0  0  0  0  0  0
   24.1377  -12.7706    7.8250 C   0  0  0  0  0  0  0  0  0  0  0  0
   25.4943  -12.8578    7.1403 C   0  0  0  0  0  0  0  0  0  0  0  0
   26.9845   -8.9695    5.7269 C   0  0  0  0  0  0  0  0  0  0  0  0
   26.9884   -7.5713    5.7536 C   0  0  0  0  0  0  0  0  0  0  0  0
   26.9156   -5.3569    9.3937 O   0  0  0  0  0  0  0  0  0  0  0  0
   26.9415   -4.3734   10.3979 C   0  0  0  0  0  0  0  0  0  0  0  0
   26.3845   -5.6750   12.4188 C   0  0  0  0  0  0  0  0  0  0  0  0
   26.1756   -5.6792   13.7006 O   0  0  0  0  0  0  0  0  0  0  0  0
   26.2648   -6.8774   11.7136 N   0  0  0  0  0  0  0  0  0  0  0  0
  1 19  1  0
 20  1  1  0
  1 30  1  0
 22  2  1  0
  2 28  1  0
  3 10  2  0
 12  3  1  0
 22  4  2  0
  4 23  1  0
 21  5  1  0
  5 22  1  0
  5 29  1  0
  7  6  1  0
  6 15  2  3
 11  7  2  0
  7 32  1  0
 14  8  2  0
  9 10  1  0
 34  9  2  0
  9 35  1  0
 17 11  1  0
 13 12  2  0
 14 13  1  0
 13 34  1  0
 15 14  1  0
 15 33  1  0
 16 17  2  0
 19 16  1  0
 16 31  1  0
 19 18  2  0
 20 21  1  0
 23 24  1  0
 23 28  2  0
 24 25  2  0
 25 26  1  0
 26 27  2  0
 27 28  1  0
 29 30  1  0
 31 32  2  0
 33 34  1  0
 35 36  2  0
 35 37  1  0
M  END
$$$$
