
     RDKit          3D

 37 42  0  0  0  0  0  0  0  0999 V2000
   25.8676  -12.3315    9.3629 N   0  0  0  0  0  0  0  0  0  0  0  0
   22.6218  -15.1069   11.7777 N   0  0  0  0  0  0  0  0  0  0  0  0
   28.0088   -1.9702   10.7076 C   0  0  0  0  0  0  0  0  0  0  0  0
   21.2530  -13.4570   11.6471 N   0  0  0  0  0  0  0  0  0  0  0  0
   23.5374  -13.0811   10.6600 N   0  0  0  0  0  0  0  0  0  0  0  0
   27.6354   -6.5401    6.8689 C   0  0  0  0  0  0  0  0  0  0  0  0
   27.4722   -7.9571    7.2131 C   0  0  0  0  0  0  0  0  0  0  0  0
   29.1245   -3.8559    6.8801 O   0  0  0  0  0  0  0  0  0  0  0  0
   26.7521   -3.9686   10.9592 C   0  0  0  0  0  0  0  0  0  0  0  0
   27.1554   -2.7405   11.4485 C   0  0  0  0  0  0  0  0  0  0  0  0
   27.8867   -8.3543    8.4947 C   0  0  0  0  0  0  0  0  0  0  0  0
   28.4791   -2.4009    9.4652 C   0  0  0  0  0  0  0  0  0  0  0  0
   28.0654   -3.6341    8.9873 C   0  0  0  0  0  0  0  0  0  0  0  0
   28.3533   -4.3619    7.7592 C   0  0  0  0  0  0  0  0  0  0  0  0
   27.6389   -5.6004    7.8006 C   0  0  0  0  0  0  0  0  0  0  0  0
   27.1770  -10.5992    8.0563 C   0  0  0  0  0  0  0  0  0  0  0  0
   27.7373   -9.6553    8.9011 C   0  0  0  0  0  0  0  0  0  0  0  0
   27.8031  -12.8648    8.2180 O   0  0  0  0  0  0  0  0  0  0  0  0
   26.9571  -11.9527    8.5451 C   0  0  0  0  0  0  0  0  0  0  0  0
   25.5222  -11.6771   10.6047 C   0  0  0  0  0  0  0  0  0  0  0  0
   24.4881  -12.3460   11.4322 C   0  0  0  0  0  0  0  0  0  0  0  0
   22.4961  -13.8348   11.3273 C   0  0  0  0  0  0  0  0  0  0  0  0
   20.6205  -14.4702   12.2817 C   0  0  0  0  0  0  0  0  0  0  0  0
   19.3502  -14.6523   12.8318 C   0  0  0  0  0  0  0  0  0  0  0  0
   18.9794  -15.8497   13.4410 C   0  0  0  0  0  0  0  0  0  0  0  0
   19.8671  -16.8971   13.5165 C   0  0  0  0  0  0  0  0  0  0  0  0
   21.1189  -16.7278   12.9785 C   0  0  0  0  0  0  0  0  0  0  0  0
   21.4901  -15.5280   12.3685 C   0  0  0  0  0  0  0  0  0  0  0  0
   23.6151  -13.0918    9.2188 C   0  0  0  0  0  0  0  0  0  0  0  0
   25.0512  -13.4619    8.8763 C   0  0  0  0  0  0  0  0  0  0  0  0
   26.7622  -10.2274    6.7811 C   0  0  0  0  0  0  0  0  0  0  0  0
   26.9265   -8.8944    6.3915 C   0  0  0  0  0  0  0  0  0  0  0  0
   26.9467   -5.6116    9.0173 O   0  0  0  0  0  0  0  0  0  0  0  0
   27.1988   -4.4276    9.7322 C   0  0  0  0  0  0  0  0  0  0  0  0
   25.8244   -4.7377   11.7579 C   0  0  0  0  0  0  0  0  0  0  0  0
   25.2917   -4.1936   12.8101 O   0  0  0  0  0  0  0  0  0  0  0  0
   25.4786   -6.0538   11.4328 N   0  0  0  0  0  0  0  0  0  0  0  0
  1 19  1  0
 20  1  1  0
  1 30  1  0
 22  2  1  0
  2 28  1  0
  3 10  2  0
 12  3  1  0
 22  4  2  0
  4 23  1  0
 21  5  1  0
  5 22  1  0
  5 29  1  0
  7  6  1  0
  6 15  2  3
 11  7  2  0
  7 32  1  0
 14  8  2  0
  9 10  1  0
 34  9  2  0
  9 35  1  0
 17 11  1  0
 13 12  2  0
 14 13  1  0
 13 34  1  0
 15 14  1  0
 15 33  1  0
 16 17  2  0
 19 16  1  0
 16 31  1  0
 19 18  2  0
 20 21  1  0
 23 24  1  0
 23 28  2  0
 24 25  2  0
 25 26  1  0
 26 27  2  0
 27 28  1  0
 29 30  1  0
 31 32  2  0
 33 34  1  0
 35 36  2  0
 35 37  1  0
M  END
$$$$
