
     RDKit          3D

 37 42  0  0  0  0  0  0  0  0999 V2000
   23.4612  -12.5580    8.7239 N   0  0  0  0  0  0  0  0  0  0  0  0
   23.6966  -16.7625   11.2368 N   0  0  0  0  0  0  0  0  0  0  0  0
   28.3070   -2.3448   10.7184 C   0  0  0  0  0  0  0  0  0  0  0  0
   25.6839  -17.0119   10.4612 N   0  0  0  0  0  0  0  0  0  0  0  0
   24.4526  -14.9497    9.7092 N   0  0  0  0  0  0  0  0  0  0  0  0
   23.9798   -6.4367   11.2587 C   0  0  0  0  0  0  0  0  0  0  0  0
   23.8361   -7.6796   10.4921 C   0  0  0  0  0  0  0  0  0  0  0  0
   24.8258   -3.9728   12.8822 O   0  0  0  0  0  0  0  0  0  0  0  0
   27.8741   -4.1870    9.2847 C   0  0  0  0  0  0  0  0  0  0  0  0
   28.6296   -3.0758    9.6084 C   0  0  0  0  0  0  0  0  0  0  0  0
   22.7832   -8.5350   10.8550 C   0  0  0  0  0  0  0  0  0  0  0  0
   27.2291   -2.7013   11.5317 C   0  0  0  0  0  0  0  0  0  0  0  0
   26.4813   -3.8183   11.1951 C   0  0  0  0  0  0  0  0  0  0  0  0
   25.3271   -4.4547   11.8145 C   0  0  0  0  0  0  0  0  0  0  0  0
   24.9726   -5.5935   11.0250 C   0  0  0  0  0  0  0  0  0  0  0  0
   23.3784  -10.0534    9.1012 C   0  0  0  0  0  0  0  0  0  0  0  0
   22.5652   -9.6998   10.1653 C   0  0  0  0  0  0  0  0  0  0  0  0
   22.4086  -11.1294    7.2432 O   0  0  0  0  0  0  0  0  0  0  0  0
   23.0722  -11.2545    8.3380 C   0  0  0  0  0  0  0  0  0  0  0  0
   23.7644  -13.6210    7.7923 C   0  0  0  0  0  0  0  0  0  0  0  0
   23.9396  -14.9736    8.3763 C   0  0  0  0  0  0  0  0  0  0  0  0
   24.6282  -16.1903   10.4358 C   0  0  0  0  0  0  0  0  0  0  0  0
   25.4152  -18.0705   11.2591 C   0  0  0  0  0  0  0  0  0  0  0  0
   26.1138  -19.2128   11.6546 C   0  0  0  0  0  0  0  0  0  0  0  0
   25.5526  -20.1548   12.5148 C   0  0  0  0  0  0  0  0  0  0  0  0
   24.2791  -19.9807   13.0034 C   0  0  0  0  0  0  0  0  0  0  0  0
   23.5838  -18.8605   12.6202 C   0  0  0  0  0  0  0  0  0  0  0  0
   24.1463  -17.9172   11.7581 C   0  0  0  0  0  0  0  0  0  0  0  0
   24.7835  -13.6968   10.3448 C   0  0  0  0  0  0  0  0  0  0  0  0
   23.5629  -12.8030   10.1767 C   0  0  0  0  0  0  0  0  0  0  0  0
   24.4292   -9.2214    8.7269 C   0  0  0  0  0  0  0  0  0  0  0  0
   24.6299   -8.0397    9.4474 C   0  0  0  0  0  0  0  0  0  0  0  0
   25.8869   -5.6345    9.9658 O   0  0  0  0  0  0  0  0  0  0  0  0
   26.7985   -4.5691   10.0675 C   0  0  0  0  0  0  0  0  0  0  0  0
   28.2676   -4.9509    8.1221 C   0  0  0  0  0  0  0  0  0  0  0  0
   29.2640   -4.5367    7.3992 O   0  0  0  0  0  0  0  0  0  0  0  0
   27.6089   -6.1275    7.7491 N   0  0  0  0  0  0  0  0  0  0  0  0
  1 19  1  0
 20  1  1  0
  1 30  1  0
 22  2  1  0
  2 28  1  0
  3 10  2  0
 12  3  1  0
 22  4  2  0
  4 23  1  0
 21  5  1  0
  5 22  1  0
  5 29  1  0
  7  6  1  0
  6 15  2  3
 11  7  2  0
  7 32  1  0
 14  8  2  0
  9 10  1  0
 34  9  2  0
  9 35  1  0
 17 11  1  0
 13 12  2  0
 14 13  1  0
 13 34  1  0
 15 14  1  0
 15 33  1  0
 16 17  2  0
 19 16  1  0
 16 31  1  0
 19 18  2  0
 20 21  1  0
 23 24  1  0
 23 28  2  0
 24 25  2  0
 25 26  1  0
 26 27  2  0
 27 28  1  0
 29 30  1  0
 31 32  2  0
 33 34  1  0
 35 36  2  0
 35 37  1  0
M  END
$$$$
