
     RDKit          3D

 37 42  0  0  0  0  0  0  0  0999 V2000
   25.1735  -12.9261   10.9941 N   0  0  0  0  0  0  0  0  0  0  0  0
   21.3919  -15.9636   11.7126 N   0  0  0  0  0  0  0  0  0  0  0  0
   27.8725   -1.8488   10.1198 C   0  0  0  0  0  0  0  0  0  0  0  0
   20.7462  -15.4904    9.7196 N   0  0  0  0  0  0  0  0  0  0  0  0
   22.8391  -14.3365   10.5086 N   0  0  0  0  0  0  0  0  0  0  0  0
   28.2088   -7.5905    8.4832 C   0  0  0  0  0  0  0  0  0  0  0  0
   27.7231   -8.7561    9.2306 C   0  0  0  0  0  0  0  0  0  0  0  0
   29.3413   -4.9652    7.3664 O   0  0  0  0  0  0  0  0  0  0  0  0
   26.8743   -3.7170   11.1921 C   0  0  0  0  0  0  0  0  0  0  0  0
   27.1015   -2.3551   11.1297 C   0  0  0  0  0  0  0  0  0  0  0  0
   27.3384   -9.8796    8.4811 C   0  0  0  0  0  0  0  0  0  0  0  0
   28.4333   -2.6823    9.1497 C   0  0  0  0  0  0  0  0  0  0  0  0
   28.1961   -4.0455    9.2248 C   0  0  0  0  0  0  0  0  0  0  0  0
   28.6135   -5.1656    8.3930 C   0  0  0  0  0  0  0  0  0  0  0  0
   28.0625   -6.3615    8.9515 C   0  0  0  0  0  0  0  0  0  0  0  0
   26.8355  -11.0802   10.4914 C   0  0  0  0  0  0  0  0  0  0  0  0
   26.9037  -11.0183    9.1093 C   0  0  0  0  0  0  0  0  0  0  0  0
   27.3126  -12.9310   11.8690 O   0  0  0  0  0  0  0  0  0  0  0  0
   26.4479  -12.3291   11.1311 C   0  0  0  0  0  0  0  0  0  0  0  0
   23.9594  -12.1890   10.7254 C   0  0  0  0  0  0  0  0  0  0  0  0
   22.6920  -12.9530   10.8322 C   0  0  0  0  0  0  0  0  0  0  0  0
   21.7019  -15.2266   10.6182 C   0  0  0  0  0  0  0  0  0  0  0  0
   19.8625  -16.3704   10.2430 C   0  0  0  0  0  0  0  0  0  0  0  0
   18.6977  -16.9911    9.7873 C   0  0  0  0  0  0  0  0  0  0  0  0
   17.9799  -17.8800   10.5853 C   0  0  0  0  0  0  0  0  0  0  0  0
   18.4065  -18.1731   11.8592 C   0  0  0  0  0  0  0  0  0  0  0  0
   19.5507  -17.5678   12.3166 C   0  0  0  0  0  0  0  0  0  0  0  0
   20.2695  -16.6770   11.5169 C   0  0  0  0  0  0  0  0  0  0  0  0
   24.1171  -14.8588   10.0877 C   0  0  0  0  0  0  0  0  0  0  0  0
   25.1259  -14.3960   11.1293 C   0  0  0  0  0  0  0  0  0  0  0  0
   27.2093   -9.9771   11.2530 C   0  0  0  0  0  0  0  0  0  0  0  0
   27.6483   -8.8284   10.5872 C   0  0  0  0  0  0  0  0  0  0  0  0
   27.3391   -5.9670   10.0831 O   0  0  0  0  0  0  0  0  0  0  0  0
   27.4148   -4.5729   10.2481 C   0  0  0  0  0  0  0  0  0  0  0  0
   26.0277   -4.2083   12.2560 C   0  0  0  0  0  0  0  0  0  0  0  0
   25.4924   -3.3613   13.0823 O   0  0  0  0  0  0  0  0  0  0  0  0
   25.7634   -5.5718   12.4249 N   0  0  0  0  0  0  0  0  0  0  0  0
  1 19  1  0
 20  1  1  0
  1 30  1  0
 22  2  1  0
  2 28  1  0
  3 10  2  0
 12  3  1  0
 22  4  2  0
  4 23  1  0
 21  5  1  0
  5 22  1  0
  5 29  1  0
  7  6  1  0
  6 15  2  3
 11  7  2  0
  7 32  1  0
 14  8  2  0
  9 10  1  0
 34  9  2  0
  9 35  1  0
 17 11  1  0
 13 12  2  0
 14 13  1  0
 13 34  1  0
 15 14  1  0
 15 33  1  0
 16 17  2  0
 19 16  1  0
 16 31  1  0
 19 18  2  0
 20 21  1  0
 23 24  1  0
 23 28  2  0
 24 25  2  0
 25 26  1  0
 26 27  2  0
 27 28  1  0
 29 30  1  0
 31 32  2  0
 33 34  1  0
 35 36  2  0
 35 37  1  0
M  END
$$$$
