
     RDKit          3D

 37 42  0  0  0  0  0  0  0  0999 V2000
   24.8288  -12.8850    9.9015 N   0  0  0  0  0  0  0  0  0  0  0  0
   22.4557  -16.8589   12.3433 N   0  0  0  0  0  0  0  0  0  0  0  0
   28.4638   -1.6709   10.5496 C   0  0  0  0  0  0  0  0  0  0  0  0
   21.0102  -15.3226   11.9393 N   0  0  0  0  0  0  0  0  0  0  0  0
   23.3768  -14.8276   11.2403 N   0  0  0  0  0  0  0  0  0  0  0  0
   25.1876   -6.5664   11.5791 C   0  0  0  0  0  0  0  0  0  0  0  0
   25.3406   -7.8810   10.9455 C   0  0  0  0  0  0  0  0  0  0  0  0
   25.5434   -3.8752   13.0120 O   0  0  0  0  0  0  0  0  0  0  0  0
   28.3813   -3.6538    9.2467 C   0  0  0  0  0  0  0  0  0  0  0  0
   28.8857   -2.3852    9.4622 C   0  0  0  0  0  0  0  0  0  0  0  0
   25.3892   -8.9975   11.7959 C   0  0  0  0  0  0  0  0  0  0  0  0
   27.5338   -2.2003   11.4470 C   0  0  0  0  0  0  0  0  0  0  0  0
   27.0375   -3.4737   11.2182 C   0  0  0  0  0  0  0  0  0  0  0  0
   26.0860   -4.3051   11.9422 C   0  0  0  0  0  0  0  0  0  0  0  0
   25.9551   -5.5436   11.2386 C   0  0  0  0  0  0  0  0  0  0  0  0
   25.5651  -10.4601    9.9078 C   0  0  0  0  0  0  0  0  0  0  0  0
   25.4992  -10.2619   11.2771 C   0  0  0  0  0  0  0  0  0  0  0  0
   26.3777  -12.0704    8.3920 O   0  0  0  0  0  0  0  0  0  0  0  0
   25.5994  -11.8181    9.3846 C   0  0  0  0  0  0  0  0  0  0  0  0
   25.0094  -14.2694    9.5265 C   0  0  0  0  0  0  0  0  0  0  0  0
   23.9715  -15.2174   10.0014 C   0  0  0  0  0  0  0  0  0  0  0  0
   22.3075  -15.6228   11.8076 C   0  0  0  0  0  0  0  0  0  0  0  0
   20.3668  -16.3478   12.5429 C   0  0  0  0  0  0  0  0  0  0  0  0
   19.0489  -16.5961   12.9313 C   0  0  0  0  0  0  0  0  0  0  0  0
   18.6799  -17.7867   13.5547 C   0  0  0  0  0  0  0  0  0  0  0  0
   19.6170  -18.7611   13.8061 C   0  0  0  0  0  0  0  0  0  0  0  0
   20.9158  -18.5263   13.4280 C   0  0  0  0  0  0  0  0  0  0  0  0
   21.2852  -17.3332   12.8038 C   0  0  0  0  0  0  0  0  0  0  0  0
   23.8224  -13.6376   11.9248 C   0  0  0  0  0  0  0  0  0  0  0  0
   23.7948  -12.5207   10.8910 C   0  0  0  0  0  0  0  0  0  0  0  0
   25.5215   -9.3673    9.0473 C   0  0  0  0  0  0  0  0  0  0  0  0
   25.4097   -8.0887    9.6027 C   0  0  0  0  0  0  0  0  0  0  0  0
   26.8021   -5.4533   10.1278 O   0  0  0  0  0  0  0  0  0  0  0  0
   27.4577   -4.2097   10.1149 C   0  0  0  0  0  0  0  0  0  0  0  0
   28.8769   -4.3881    8.1043 C   0  0  0  0  0  0  0  0  0  0  0  0
   29.7067   -3.8090    7.2900 O   0  0  0  0  0  0  0  0  0  0  0  0
   28.4920   -5.7083    7.8463 N   0  0  0  0  0  0  0  0  0  0  0  0
  1 19  1  0
 20  1  1  0
  1 30  1  0
 22  2  1  0
  2 28  1  0
  3 10  2  0
 12  3  1  0
 22  4  2  0
  4 23  1  0
 21  5  1  0
  5 22  1  0
  5 29  1  0
  7  6  1  0
  6 15  2  3
 11  7  2  0
  7 32  1  0
 14  8  2  0
  9 10  1  0
 34  9  2  0
  9 35  1  0
 17 11  1  0
 13 12  2  0
 14 13  1  0
 13 34  1  0
 15 14  1  0
 15 33  1  0
 16 17  2  0
 19 16  1  0
 16 31  1  0
 19 18  2  0
 20 21  1  0
 23 24  1  0
 23 28  2  0
 24 25  2  0
 25 26  1  0
 26 27  2  0
 27 28  1  0
 29 30  1  0
 31 32  2  0
 33 34  1  0
 35 36  2  0
 35 37  1  0
M  END
$$$$
