
     RDKit          3D

 37 42  0  0  0  0  0  0  0  0999 V2000
   24.0285  -12.1677    8.1202 N   0  0  0  0  0  0  0  0  0  0  0  0
   23.9016  -15.0920   12.0663 N   0  0  0  0  0  0  0  0  0  0  0  0
   28.5846   -2.3712   11.4912 C   0  0  0  0  0  0  0  0  0  0  0  0
   24.6973  -16.6416   10.8100 N   0  0  0  0  0  0  0  0  0  0  0  0
   24.4230  -14.3803    9.7397 N   0  0  0  0  0  0  0  0  0  0  0  0
   28.1133   -7.0582    7.8076 C   0  0  0  0  0  0  0  0  0  0  0  0
   26.9912   -7.9983    7.7067 C   0  0  0  0  0  0  0  0  0  0  0  0
   30.2303   -4.8821    8.2605 O   0  0  0  0  0  0  0  0  0  0  0  0
   26.7944   -3.9242   11.3519 C   0  0  0  0  0  0  0  0  0  0  0  0
   27.3623   -2.8031   11.9270 C   0  0  0  0  0  0  0  0  0  0  0  0
   27.1713   -9.1207    6.8821 C   0  0  0  0  0  0  0  0  0  0  0  0
   29.2690   -3.0412   10.4748 C   0  0  0  0  0  0  0  0  0  0  0  0
   28.6867   -4.1633    9.9072 C   0  0  0  0  0  0  0  0  0  0  0  0
   29.1159   -5.0680    8.8497 C   0  0  0  0  0  0  0  0  0  0  0  0
   28.1000   -6.0598    8.6760 C   0  0  0  0  0  0  0  0  0  0  0  0
   24.9858   -9.9194    7.4485 C   0  0  0  0  0  0  0  0  0  0  0  0
   26.1802  -10.0604    6.7614 C   0  0  0  0  0  0  0  0  0  0  0  0
   23.0003  -10.8167    6.5521 O   0  0  0  0  0  0  0  0  0  0  0  0
   23.9856  -10.9737    7.3640 C   0  0  0  0  0  0  0  0  0  0  0  0
   23.7905  -13.4830    7.5698 C   0  0  0  0  0  0  0  0  0  0  0  0
   23.6612  -14.5896    8.5497 C   0  0  0  0  0  0  0  0  0  0  0  0
   24.3580  -15.3474   10.8159 C   0  0  0  0  0  0  0  0  0  0  0  0
   24.4574  -17.1787   12.0279 C   0  0  0  0  0  0  0  0  0  0  0  0
   24.6088  -18.4445   12.5974 C   0  0  0  0  0  0  0  0  0  0  0  0
   24.2608  -18.6989   13.9227 C   0  0  0  0  0  0  0  0  0  0  0  0
   23.7530  -17.6961   14.7146 C   0  0  0  0  0  0  0  0  0  0  0  0
   23.6001  -16.4478   14.1637 C   0  0  0  0  0  0  0  0  0  0  0  0
   23.9486  -16.1933   12.8358 C   0  0  0  0  0  0  0  0  0  0  0  0
   25.2463  -13.2038    9.8854 C   0  0  0  0  0  0  0  0  0  0  0  0
   24.3510  -12.0184    9.5537 C   0  0  0  0  0  0  0  0  0  0  0  0
   24.7856   -8.8132    8.2688 C   0  0  0  0  0  0  0  0  0  0  0  0
   25.8123   -7.8696    8.3736 C   0  0  0  0  0  0  0  0  0  0  0  0
   27.0957   -5.7567    9.6028 O   0  0  0  0  0  0  0  0  0  0  0  0
   27.4445   -4.6135   10.3429 C   0  0  0  0  0  0  0  0  0  0  0  0
   25.4873   -4.3290   11.8183 C   0  0  0  0  0  0  0  0  0  0  0  0
   24.8475   -3.5657   12.6519 O   0  0  0  0  0  0  0  0  0  0  0  0
   24.8852   -5.5201   11.3986 N   0  0  0  0  0  0  0  0  0  0  0  0
  1 19  1  0
 20  1  1  0
  1 30  1  0
 22  2  1  0
  2 28  1  0
  3 10  2  0
 12  3  1  0
 22  4  2  0
  4 23  1  0
 21  5  1  0
  5 22  1  0
  5 29  1  0
  7  6  1  0
  6 15  2  3
 11  7  2  0
  7 32  1  0
 14  8  2  0
  9 10  1  0
 34  9  2  0
  9 35  1  0
 17 11  1  0
 13 12  2  0
 14 13  1  0
 13 34  1  0
 15 14  1  0
 15 33  1  0
 16 17  2  0
 19 16  1  0
 16 31  1  0
 19 18  2  0
 20 21  1  0
 23 24  1  0
 23 28  2  0
 24 25  2  0
 25 26  1  0
 26 27  2  0
 27 28  1  0
 29 30  1  0
 31 32  2  0
 33 34  1  0
 35 36  2  0
 35 37  1  0
M  END
$$$$
