
     RDKit          3D

 37 42  0  0  0  0  0  0  0  0999 V2000
   24.9464  -12.5081    9.8227 N   0  0  0  0  0  0  0  0  0  0  0  0
   23.3995  -16.1286   13.2613 N   0  0  0  0  0  0  0  0  0  0  0  0
   28.5790   -2.2312   12.4141 C   0  0  0  0  0  0  0  0  0  0  0  0
   21.7392  -14.8373   12.8268 N   0  0  0  0  0  0  0  0  0  0  0  0
   23.9218  -14.2438   11.7232 N   0  0  0  0  0  0  0  0  0  0  0  0
   24.7958   -5.8649    9.5430 C   0  0  0  0  0  0  0  0  0  0  0  0
   25.0117   -7.3150    9.4845 C   0  0  0  0  0  0  0  0  0  0  0  0
   24.9059   -4.6719   12.3692 O   0  0  0  0  0  0  0  0  0  0  0  0
   28.7424   -3.0109   10.1776 C   0  0  0  0  0  0  0  0  0  0  0  0
   29.2514   -2.2644   11.2235 C   0  0  0  0  0  0  0  0  0  0  0  0
   24.0999   -8.0658    8.7249 C   0  0  0  0  0  0  0  0  0  0  0  0
   27.3883   -2.9387   12.5930 C   0  0  0  0  0  0  0  0  0  0  0  0
   26.8906   -3.6833   11.5356 C   0  0  0  0  0  0  0  0  0  0  0  0
   25.7087   -4.5219   11.3911 C   0  0  0  0  0  0  0  0  0  0  0  0
   25.7025   -5.0534   10.0632 C   0  0  0  0  0  0  0  0  0  0  0  0
   25.3083  -10.0750    9.2132 C   0  0  0  0  0  0  0  0  0  0  0  0
   24.2536   -9.4222    8.5965 C   0  0  0  0  0  0  0  0  0  0  0  0
   26.1917  -11.8781    7.9805 O   0  0  0  0  0  0  0  0  0  0  0  0
   25.4911  -11.5021    8.9917 C   0  0  0  0  0  0  0  0  0  0  0  0
   25.3589  -13.8932    9.7930 C   0  0  0  0  0  0  0  0  0  0  0  0
   24.5284  -14.8410   10.5761 C   0  0  0  0  0  0  0  0  0  0  0  0
   23.0365  -15.0272   12.5598 C   0  0  0  0  0  0  0  0  0  0  0  0
   21.3056  -15.7978   13.6746 C   0  0  0  0  0  0  0  0  0  0  0  0
   20.0866  -16.1018   14.2839 C   0  0  0  0  0  0  0  0  0  0  0  0
   19.9459  -17.1938   15.1383 C   0  0  0  0  0  0  0  0  0  0  0  0
   21.0183  -18.0116   15.4063 C   0  0  0  0  0  0  0  0  0  0  0  0
   22.2214  -17.7209   14.8120 C   0  0  0  0  0  0  0  0  0  0  0  0
   22.3622  -16.6266   13.9564 C   0  0  0  0  0  0  0  0  0  0  0  0
   24.1719  -12.8597   12.0473 C   0  0  0  0  0  0  0  0  0  0  0  0
   23.9029  -12.0725   10.7727 C   0  0  0  0  0  0  0  0  0  0  0  0
   26.2217   -9.3504    9.9729 C   0  0  0  0  0  0  0  0  0  0  0  0
   26.0413   -7.9684   10.0880 C   0  0  0  0  0  0  0  0  0  0  0  0
   26.8454   -4.5461    9.4340 O   0  0  0  0  0  0  0  0  0  0  0  0
   27.5645   -3.7239   10.3191 C   0  0  0  0  0  0  0  0  0  0  0  0
   29.4998   -3.0457    8.9468 C   0  0  0  0  0  0  0  0  0  0  0  0
   30.5469   -2.2871    8.8254 O   0  0  0  0  0  0  0  0  0  0  0  0
   29.1416   -3.8743    7.8778 N   0  0  0  0  0  0  0  0  0  0  0  0
  1 19  1  0
 20  1  1  0
  1 30  1  0
 22  2  1  0
  2 28  1  0
  3 10  2  0
 12  3  1  0
 22  4  2  0
  4 23  1  0
 21  5  1  0
  5 22  1  0
  5 29  1  0
  7  6  1  0
  6 15  2  3
 11  7  2  0
  7 32  1  0
 14  8  2  0
  9 10  1  0
 34  9  2  0
  9 35  1  0
 17 11  1  0
 13 12  2  0
 14 13  1  0
 13 34  1  0
 15 14  1  0
 15 33  1  0
 16 17  2  0
 19 16  1  0
 16 31  1  0
 19 18  2  0
 20 21  1  0
 23 24  1  0
 23 28  2  0
 24 25  2  0
 25 26  1  0
 26 27  2  0
 27 28  1  0
 29 30  1  0
 31 32  2  0
 33 34  1  0
 35 36  2  0
 35 37  1  0
M  END
$$$$
