
     RDKit          3D

 37 42  0  0  0  0  0  0  0  0999 V2000
   25.4964  -12.0673    7.5731 N   0  0  0  0  0  0  0  0  0  0  0  0
   22.4541  -12.5609   11.3867 N   0  0  0  0  0  0  0  0  0  0  0  0
   27.9652   -2.5239   11.1522 C   0  0  0  0  0  0  0  0  0  0  0  0
   23.9283  -13.8384   12.2853 N   0  0  0  0  0  0  0  0  0  0  0  0
   24.4997  -12.9148   10.0149 N   0  0  0  0  0  0  0  0  0  0  0  0
   28.0035   -6.1380    6.3881 C   0  0  0  0  0  0  0  0  0  0  0  0
   27.4893   -7.5101    6.3119 C   0  0  0  0  0  0  0  0  0  0  0  0
   29.2979   -3.4340    7.0478 O   0  0  0  0  0  0  0  0  0  0  0  0
   26.8479   -4.6045   10.9088 C   0  0  0  0  0  0  0  0  0  0  0  0
   27.1520   -3.4931   11.6720 C   0  0  0  0  0  0  0  0  0  0  0  0
   28.1548   -8.4842    7.0737 C   0  0  0  0  0  0  0  0  0  0  0  0
   28.4928   -2.6360    9.8640 C   0  0  0  0  0  0  0  0  0  0  0  0
   28.1785   -3.7556    9.1104 C   0  0  0  0  0  0  0  0  0  0  0  0
   28.5449   -4.1715    7.7637 C   0  0  0  0  0  0  0  0  0  0  0  0
   27.9193   -5.4313    7.5038 C   0  0  0  0  0  0  0  0  0  0  0  0
   26.6078  -10.1562    6.3343 C   0  0  0  0  0  0  0  0  0  0  0  0
   27.7143   -9.7827    7.0792 C   0  0  0  0  0  0  0  0  0  0  0  0
   26.2514  -12.2895    5.4001 O   0  0  0  0  0  0  0  0  0  0  0  0
   26.1159  -11.5233    6.4244 C   0  0  0  0  0  0  0  0  0  0  0  0
   25.2781  -13.4810    7.7817 C   0  0  0  0  0  0  0  0  0  0  0  0
   24.4219  -13.8482    8.9365 C   0  0  0  0  0  0  0  0  0  0  0  0
   23.6799  -13.1060   11.1935 C   0  0  0  0  0  0  0  0  0  0  0  0
   22.8816  -13.7512   13.1374 C   0  0  0  0  0  0  0  0  0  0  0  0
   22.5819  -14.2835   14.3929 C   0  0  0  0  0  0  0  0  0  0  0  0
   21.3804  -14.0029   15.0409 C   0  0  0  0  0  0  0  0  0  0  0  0
   20.4466  -13.1826   14.4526 C   0  0  0  0  0  0  0  0  0  0  0  0
   20.7320  -12.6542   13.2180 C   0  0  0  0  0  0  0  0  0  0  0  0
   21.9357  -12.9359   12.5689 C   0  0  0  0  0  0  0  0  0  0  0  0
   25.3782  -11.7725    9.9335 C   0  0  0  0  0  0  0  0  0  0  0  0
   25.0718  -11.0984    8.6037 C   0  0  0  0  0  0  0  0  0  0  0  0
   25.9353   -9.2072    5.5702 C   0  0  0  0  0  0  0  0  0  0  0  0
   26.4059   -7.8904    5.5820 C   0  0  0  0  0  0  0  0  0  0  0  0
   27.2023   -5.7576    8.6609 O   0  0  0  0  0  0  0  0  0  0  0  0
   27.3536   -4.7490    9.6285 C   0  0  0  0  0  0  0  0  0  0  0  0
   25.9592   -5.5900   11.4824 C   0  0  0  0  0  0  0  0  0  0  0  0
   25.4320   -5.3658   12.6480 O   0  0  0  0  0  0  0  0  0  0  0  0
   25.6457   -6.7818   10.8201 N   0  0  0  0  0  0  0  0  0  0  0  0
  1 19  1  0
 20  1  1  0
  1 30  1  0
 22  2  1  0
  2 28  1  0
  3 10  2  0
 12  3  1  0
 22  4  2  0
  4 23  1  0
 21  5  1  0
  5 22  1  0
  5 29  1  0
  7  6  1  0
  6 15  2  3
 11  7  2  0
  7 32  1  0
 14  8  2  0
  9 10  1  0
 34  9  2  0
  9 35  1  0
 17 11  1  0
 13 12  2  0
 14 13  1  0
 13 34  1  0
 15 14  1  0
 15 33  1  0
 16 17  2  0
 19 16  1  0
 16 31  1  0
 19 18  2  0
 20 21  1  0
 23 24  1  0
 23 28  2  0
 24 25  2  0
 25 26  1  0
 26 27  2  0
 27 28  1  0
 29 30  1  0
 31 32  2  0
 33 34  1  0
 35 36  2  0
 35 37  1  0
M  END
$$$$
