
     RDKit          3D

 37 42  0  0  0  0  0  0  0  0999 V2000
   24.7365  -11.6929    7.6100 N   0  0  0  0  0  0  0  0  0  0  0  0
   23.1794  -12.3527   12.2158 N   0  0  0  0  0  0  0  0  0  0  0  0
   28.1242   -2.6871   11.7690 C   0  0  0  0  0  0  0  0  0  0  0  0
   23.5971  -14.4435   11.9573 N   0  0  0  0  0  0  0  0  0  0  0  0
   24.1559  -12.9535   10.0075 N   0  0  0  0  0  0  0  0  0  0  0  0
   28.0126   -6.0693    6.8388 C   0  0  0  0  0  0  0  0  0  0  0  0
   27.3035   -7.3400    6.6503 C   0  0  0  0  0  0  0  0  0  0  0  0
   29.5728   -3.5693    7.6979 O   0  0  0  0  0  0  0  0  0  0  0  0
   26.7884   -4.6078   11.3652 C   0  0  0  0  0  0  0  0  0  0  0  0
   27.1758   -3.5746   12.1975 C   0  0  0  0  0  0  0  0  0  0  0  0
   27.3606   -8.2652    7.7052 C   0  0  0  0  0  0  0  0  0  0  0  0
   28.7074   -2.8047   10.5056 C   0  0  0  0  0  0  0  0  0  0  0  0
   28.3084   -3.8453    9.6819 C   0  0  0  0  0  0  0  0  0  0  0  0
   28.6998   -4.2427    8.3367 C   0  0  0  0  0  0  0  0  0  0  0  0
   27.9479   -5.4068    7.9825 C   0  0  0  0  0  0  0  0  0  0  0  0
   25.9609   -9.7792    6.4870 C   0  0  0  0  0  0  0  0  0  0  0  0
   26.6971   -9.4618    7.6166 C   0  0  0  0  0  0  0  0  0  0  0  0
   24.9358  -11.5455    5.3122 O   0  0  0  0  0  0  0  0  0  0  0  0
   25.2018  -11.0210    6.4561 C   0  0  0  0  0  0  0  0  0  0  0  0
   24.0036  -12.9386    7.5804 C   0  0  0  0  0  0  0  0  0  0  0  0
   23.4096  -13.3797    8.8665 C   0  0  0  0  0  0  0  0  0  0  0  0
   23.6742  -13.2596   11.3386 C   0  0  0  0  0  0  0  0  0  0  0  0
   23.0664  -14.2769   13.1902 C   0  0  0  0  0  0  0  0  0  0  0  0
   22.7551  -15.1244   14.2552 C   0  0  0  0  0  0  0  0  0  0  0  0
   22.1971  -14.6419   15.4376 C   0  0  0  0  0  0  0  0  0  0  0  0
   21.9359  -13.3003   15.5881 C   0  0  0  0  0  0  0  0  0  0  0  0
   22.2384  -12.4587   14.5464 C   0  0  0  0  0  0  0  0  0  0  0  0
   22.7972  -12.9425   13.3617 C   0  0  0  0  0  0  0  0  0  0  0  0
   25.3797  -12.2058    9.8451 C   0  0  0  0  0  0  0  0  0  0  0  0
   25.0498  -11.0553    8.9047 C   0  0  0  0  0  0  0  0  0  0  0  0
   25.8934   -8.8779    5.4289 C   0  0  0  0  0  0  0  0  0  0  0  0
   26.5799   -7.6650    5.5449 C   0  0  0  0  0  0  0  0  0  0  0  0
   27.1335   -5.6959    9.0837 O   0  0  0  0  0  0  0  0  0  0  0  0
   27.3458   -4.7554   10.1069 C   0  0  0  0  0  0  0  0  0  0  0  0
   25.7603   -5.5050   11.8427 C   0  0  0  0  0  0  0  0  0  0  0  0
   25.1844   -5.2604   12.9808 O   0  0  0  0  0  0  0  0  0  0  0  0
   25.3622   -6.6320   11.1155 N   0  0  0  0  0  0  0  0  0  0  0  0
  1 19  1  0
 20  1  1  0
  1 30  1  0
 22  2  1  0
  2 28  1  0
  3 10  2  0
 12  3  1  0
 22  4  2  0
  4 23  1  0
 21  5  1  0
  5 22  1  0
  5 29  1  0
  7  6  1  0
  6 15  2  3
 11  7  2  0
  7 32  1  0
 14  8  2  0
  9 10  1  0
 34  9  2  0
  9 35  1  0
 17 11  1  0
 13 12  2  0
 14 13  1  0
 13 34  1  0
 15 14  1  0
 15 33  1  0
 16 17  2  0
 19 16  1  0
 16 31  1  0
 19 18  2  0
 20 21  1  0
 23 24  1  0
 23 28  2  0
 24 25  2  0
 25 26  1  0
 26 27  2  0
 27 28  1  0
 29 30  1  0
 31 32  2  0
 33 34  1  0
 35 36  2  0
 35 37  1  0
M  END
$$$$
