
     RDKit          3D

 37 42  0  0  0  0  0  0  0  0999 V2000
   24.0431  -12.5180    9.3506 N   0  0  0  0  0  0  0  0  0  0  0  0
   25.0482  -17.2542   10.1269 N   0  0  0  0  0  0  0  0  0  0  0  0
   28.3654   -2.3913   10.8033 C   0  0  0  0  0  0  0  0  0  0  0  0
   24.7242  -16.8890   12.2185 N   0  0  0  0  0  0  0  0  0  0  0  0
   24.4017  -14.9176   10.6875 N   0  0  0  0  0  0  0  0  0  0  0  0
   23.8112   -6.2422   11.2374 C   0  0  0  0  0  0  0  0  0  0  0  0
   23.6868   -7.5435   10.5710 C   0  0  0  0  0  0  0  0  0  0  0  0
   24.6431   -3.7130   12.7649 O   0  0  0  0  0  0  0  0  0  0  0  0
   27.9602   -4.3061    9.4596 C   0  0  0  0  0  0  0  0  0  0  0  0
   28.7409   -3.2098    9.7739 C   0  0  0  0  0  0  0  0  0  0  0  0
   24.7627   -7.9543    9.7674 C   0  0  0  0  0  0  0  0  0  0  0  0
   27.2085   -2.6436   11.5437 C   0  0  0  0  0  0  0  0  0  0  0  0
   26.4362   -3.7470   11.2175 C   0  0  0  0  0  0  0  0  0  0  0  0
   25.2053   -4.2882   11.7767 C   0  0  0  0  0  0  0  0  0  0  0  0
   24.8603   -5.4615   11.0349 C   0  0  0  0  0  0  0  0  0  0  0  0
   23.6455  -10.0161    9.2811 C   0  0  0  0  0  0  0  0  0  0  0  0
   24.7341   -9.1718    9.1373 C   0  0  0  0  0  0  0  0  0  0  0  0
   23.3629  -11.4380    7.4239 O   0  0  0  0  0  0  0  0  0  0  0  0
   23.6798  -11.3352    8.6663 C   0  0  0  0  0  0  0  0  0  0  0  0
   24.9350  -12.5534   10.4877 C   0  0  0  0  0  0  0  0  0  0  0  0
   25.3715  -13.8987   10.9362 C   0  0  0  0  0  0  0  0  0  0  0  0
   24.7027  -16.2948   11.0198 C   0  0  0  0  0  0  0  0  0  0  0  0
   25.0750  -18.1873   12.0745 C   0  0  0  0  0  0  0  0  0  0  0  0
   25.2580  -19.2642   12.9442 C   0  0  0  0  0  0  0  0  0  0  0  0
   25.6348  -20.5240   12.4826 C   0  0  0  0  0  0  0  0  0  0  0  0
   25.8380  -20.7421   11.1403 C   0  0  0  0  0  0  0  0  0  0  0  0
   25.6606  -19.6894   10.2769 C   0  0  0  0  0  0  0  0  0  0  0  0
   25.2835  -18.4272   10.7398 C   0  0  0  0  0  0  0  0  0  0  0  0
   23.1287  -14.5882   10.0926 C   0  0  0  0  0  0  0  0  0  0  0  0
   23.4433  -13.7705    8.8480 C   0  0  0  0  0  0  0  0  0  0  0  0
   22.5675   -9.6273   10.0707 C   0  0  0  0  0  0  0  0  0  0  0  0
   22.6220   -8.3804   10.7015 C   0  0  0  0  0  0  0  0  0  0  0  0
   25.8548   -5.6149   10.0617 O   0  0  0  0  0  0  0  0  0  0  0  0
   26.8067   -4.5862   10.1715 C   0  0  0  0  0  0  0  0  0  0  0  0
   28.4088   -5.1641    8.3860 C   0  0  0  0  0  0  0  0  0  0  0  0
   29.4670   -4.8326    7.7099 O   0  0  0  0  0  0  0  0  0  0  0  0
   27.7388   -6.3457    8.0506 N   0  0  0  0  0  0  0  0  0  0  0  0
  1 19  1  0
 20  1  1  0
  1 30  1  0
 22  2  1  0
  2 28  1  0
  3 10  2  0
 12  3  1  0
 22  4  2  0
  4 23  1  0
 21  5  1  0
  5 22  1  0
  5 29  1  0
  7  6  1  0
  6 15  2  3
 11  7  2  0
  7 32  1  0
 14  8  2  0
  9 10  1  0
 34  9  2  0
  9 35  1  0
 17 11  1  0
 13 12  2  0
 14 13  1  0
 13 34  1  0
 15 14  1  0
 15 33  1  0
 16 17  2  0
 19 16  1  0
 16 31  1  0
 19 18  2  0
 20 21  1  0
 23 24  1  0
 23 28  2  0
 24 25  2  0
 25 26  1  0
 26 27  2  0
 27 28  1  0
 29 30  1  0
 31 32  2  0
 33 34  1  0
 35 36  2  0
 35 37  1  0
M  END
$$$$
