
     RDKit          3D

 37 42  0  0  0  0  0  0  0  0999 V2000
   25.8682  -12.8986    9.9486 N   0  0  0  0  0  0  0  0  0  0  0  0
   21.2185  -15.1171   10.8569 N   0  0  0  0  0  0  0  0  0  0  0  0
   27.9415   -1.9413   10.5177 C   0  0  0  0  0  0  0  0  0  0  0  0
   22.6709  -15.9755   12.1860 N   0  0  0  0  0  0  0  0  0  0  0  0
   23.5386  -14.2723   10.5488 N   0  0  0  0  0  0  0  0  0  0  0  0
   27.9141   -7.0817    7.4624 C   0  0  0  0  0  0  0  0  0  0  0  0
   27.6142   -8.4170    7.9916 C   0  0  0  0  0  0  0  0  0  0  0  0
   29.3336   -4.3819    7.1183 O   0  0  0  0  0  0  0  0  0  0  0  0
   26.7211   -3.9143   11.0216 C   0  0  0  0  0  0  0  0  0  0  0  0
   27.0637   -2.6103   11.3255 C   0  0  0  0  0  0  0  0  0  0  0  0
   28.5122   -9.4475    7.6696 C   0  0  0  0  0  0  0  0  0  0  0  0
   28.4969   -2.5509    9.3907 C   0  0  0  0  0  0  0  0  0  0  0  0
   28.1433   -3.8585    9.0982 C   0  0  0  0  0  0  0  0  0  0  0  0
   28.5230   -4.7651    8.0236 C   0  0  0  0  0  0  0  0  0  0  0  0
   27.8379   -6.0041    8.2268 C   0  0  0  0  0  0  0  0  0  0  0  0
   27.2319  -11.0026    8.9650 C   0  0  0  0  0  0  0  0  0  0  0  0
   28.3168  -10.7156    8.1529 C   0  0  0  0  0  0  0  0  0  0  0  0
   28.1553  -13.0570    9.6562 O   0  0  0  0  0  0  0  0  0  0  0  0
   27.0964  -12.3380    9.5284 C   0  0  0  0  0  0  0  0  0  0  0  0
   24.6277  -12.1608   10.0297 C   0  0  0  0  0  0  0  0  0  0  0  0
   23.4968  -12.8521   10.6965 C   0  0  0  0  0  0  0  0  0  0  0  0
   22.5320  -15.0930   11.1899 C   0  0  0  0  0  0  0  0  0  0  0  0
   21.4719  -16.5355   12.4657 C   0  0  0  0  0  0  0  0  0  0  0  0
   21.0152  -17.4905   13.3762 C   0  0  0  0  0  0  0  0  0  0  0  0
   19.6767  -17.8753   13.4260 C   0  0  0  0  0  0  0  0  0  0  0  0
   18.7586  -17.3161   12.5686 C   0  0  0  0  0  0  0  0  0  0  0  0
   19.1979  -16.3761   11.6695 C   0  0  0  0  0  0  0  0  0  0  0  0
   20.5392  -15.9911   11.6196 C   0  0  0  0  0  0  0  0  0  0  0  0
   24.5859  -14.8984    9.7779 C   0  0  0  0  0  0  0  0  0  0  0  0
   25.8957  -14.3312   10.3065 C   0  0  0  0  0  0  0  0  0  0  0  0
   26.3284   -9.9967    9.2940 C   0  0  0  0  0  0  0  0  0  0  0  0
   26.5507   -8.7124    8.7872 C   0  0  0  0  0  0  0  0  0  0  0  0
   27.0736   -5.8421    9.3883 O   0  0  0  0  0  0  0  0  0  0  0  0
   27.2526   -4.5502    9.9131 C   0  0  0  0  0  0  0  0  0  0  0  0
   25.7656   -4.5753   11.8820 C   0  0  0  0  0  0  0  0  0  0  0  0
   25.2260   -3.9103   12.8584 O   0  0  0  0  0  0  0  0  0  0  0  0
   25.4003   -5.9130   11.6961 N   0  0  0  0  0  0  0  0  0  0  0  0
  1 19  1  0
 20  1  1  0
  1 30  1  0
 22  2  1  0
  2 28  1  0
  3 10  2  0
 12  3  1  0
 22  4  2  0
  4 23  1  0
 21  5  1  0
  5 22  1  0
  5 29  1  0
  7  6  1  0
  6 15  2  3
 11  7  2  0
  7 32  1  0
 14  8  2  0
  9 10  1  0
 34  9  2  0
  9 35  1  0
 17 11  1  0
 13 12  2  0
 14 13  1  0
 13 34  1  0
 15 14  1  0
 15 33  1  0
 16 17  2  0
 19 16  1  0
 16 31  1  0
 19 18  2  0
 20 21  1  0
 23 24  1  0
 23 28  2  0
 24 25  2  0
 25 26  1  0
 26 27  2  0
 27 28  1  0
 29 30  1  0
 31 32  2  0
 33 34  1  0
 35 36  2  0
 35 37  1  0
M  END
$$$$
