
     RDKit          3D

 37 42  0  0  0  0  0  0  0  0999 V2000
   25.3603  -12.8168   11.0407 N   0  0  0  0  0  0  0  0  0  0  0  0
   22.5879  -16.7273    8.9962 N   0  0  0  0  0  0  0  0  0  0  0  0
   28.0561   -1.6584   10.2245 C   0  0  0  0  0  0  0  0  0  0  0  0
   22.2438  -16.7129   11.1161 N   0  0  0  0  0  0  0  0  0  0  0  0
   23.9393  -15.0625   10.2585 N   0  0  0  0  0  0  0  0  0  0  0  0
   27.6585   -7.3086    8.3070 C   0  0  0  0  0  0  0  0  0  0  0  0
   27.3664   -8.4944    9.1203 C   0  0  0  0  0  0  0  0  0  0  0  0
   29.1060   -4.7937    7.3059 O   0  0  0  0  0  0  0  0  0  0  0  0
   26.8367   -3.4376   11.2163 C   0  0  0  0  0  0  0  0  0  0  0  0
   27.2331   -2.1136   11.2175 C   0  0  0  0  0  0  0  0  0  0  0  0
   26.4602   -8.3333   10.1809 C   0  0  0  0  0  0  0  0  0  0  0  0
   28.5022   -2.5064    9.2085 C   0  0  0  0  0  0  0  0  0  0  0  0
   28.0959   -3.8312    9.2201 C   0  0  0  0  0  0  0  0  0  0  0  0
   28.3645   -4.9520    8.3299 C   0  0  0  0  0  0  0  0  0  0  0  0
   27.6705   -6.0957    8.8361 C   0  0  0  0  0  0  0  0  0  0  0  0
   26.6489  -10.6571   10.7287 C   0  0  0  0  0  0  0  0  0  0  0  0
   26.1127   -9.4022   10.9663 C   0  0  0  0  0  0  0  0  0  0  0  0
   26.5829  -11.8606   12.7531 O   0  0  0  0  0  0  0  0  0  0  0  0
   26.1990  -11.7878   11.5276 C   0  0  0  0  0  0  0  0  0  0  0  0
   24.9001  -12.9065    9.6733 C   0  0  0  0  0  0  0  0  0  0  0  0
   23.8563  -13.9247    9.3989 C   0  0  0  0  0  0  0  0  0  0  0  0
   22.9555  -16.1199   10.1507 C   0  0  0  0  0  0  0  0  0  0  0  0
   21.4524  -17.6669   10.5749 C   0  0  0  0  0  0  0  0  0  0  0  0
   20.5231  -18.5812   11.0749 C   0  0  0  0  0  0  0  0  0  0  0  0
   19.8446  -19.4678   10.2408 C   0  0  0  0  0  0  0  0  0  0  0  0
   20.0755  -19.4645    8.8853 C   0  0  0  0  0  0  0  0  0  0  0  0
   20.9877  -18.5691    8.3839 C   0  0  0  0  0  0  0  0  0  0  0  0
   21.6675  -17.6812    9.2199 C   0  0  0  0  0  0  0  0  0  0  0  0
   24.9878  -15.1603   11.2456 C   0  0  0  0  0  0  0  0  0  0  0  0
   24.9630  -13.8495   12.0189 C   0  0  0  0  0  0  0  0  0  0  0  0
   27.5509  -10.8380    9.6846 C   0  0  0  0  0  0  0  0  0  0  0  0
   27.8886   -9.7312    8.8994 C   0  0  0  0  0  0  0  0  0  0  0  0
   27.0087   -5.6702    9.9939 O   0  0  0  0  0  0  0  0  0  0  0  0
   27.2601   -4.3066   10.2256 C   0  0  0  0  0  0  0  0  0  0  0  0
   25.9409   -3.8712   12.2649 C   0  0  0  0  0  0  0  0  0  0  0  0
   25.5108   -3.0032   13.1300 O   0  0  0  0  0  0  0  0  0  0  0  0
   25.5186   -5.2002   12.3783 N   0  0  0  0  0  0  0  0  0  0  0  0
  1 19  1  0
 20  1  1  0
  1 30  1  0
 22  2  1  0
  2 28  1  0
  3 10  2  0
 12  3  1  0
 22  4  2  0
  4 23  1  0
 21  5  1  0
  5 22  1  0
  5 29  1  0
  7  6  1  0
  6 15  2  3
 11  7  2  0
  7 32  1  0
 14  8  2  0
  9 10  1  0
 34  9  2  0
  9 35  1  0
 17 11  1  0
 13 12  2  0
 14 13  1  0
 13 34  1  0
 15 14  1  0
 15 33  1  0
 16 17  2  0
 19 16  1  0
 16 31  1  0
 19 18  2  0
 20 21  1  0
 23 24  1  0
 23 28  2  0
 24 25  2  0
 25 26  1  0
 26 27  2  0
 27 28  1  0
 29 30  1  0
 31 32  2  0
 33 34  1  0
 35 36  2  0
 35 37  1  0
M  END
$$$$
