
     RDKit          3D

 37 42  0  0  0  0  0  0  0  0999 V2000
   26.0526  -13.1296   10.8885 N   0  0  0  0  0  0  0  0  0  0  0  0
   21.2894  -15.0188   11.9009 N   0  0  0  0  0  0  0  0  0  0  0  0
   27.9097   -2.2252   10.2639 C   0  0  0  0  0  0  0  0  0  0  0  0
   21.7634  -15.4310    9.8470 N   0  0  0  0  0  0  0  0  0  0  0  0
   23.4670  -14.0943   11.1297 N   0  0  0  0  0  0  0  0  0  0  0  0
   27.6962   -7.6310    7.7161 C   0  0  0  0  0  0  0  0  0  0  0  0
   27.6403   -8.9222    8.4108 C   0  0  0  0  0  0  0  0  0  0  0  0
   28.9700   -4.9434    6.9566 O   0  0  0  0  0  0  0  0  0  0  0  0
   26.8274   -4.1697   11.0907 C   0  0  0  0  0  0  0  0  0  0  0  0
   27.1584   -2.8351   11.2304 C   0  0  0  0  0  0  0  0  0  0  0  0
   27.6034   -8.8905    9.8143 C   0  0  0  0  0  0  0  0  0  0  0  0
   28.3474   -2.9256    9.1377 C   0  0  0  0  0  0  0  0  0  0  0  0
   28.0071   -4.2629    9.0111 C   0  0  0  0  0  0  0  0  0  0  0  0
   28.2870   -5.2580    7.9853 C   0  0  0  0  0  0  0  0  0  0  0  0
   27.6745   -6.4880    8.3826 C   0  0  0  0  0  0  0  0  0  0  0  0
   27.4690  -11.2804    9.8901 C   0  0  0  0  0  0  0  0  0  0  0  0
   27.5187  -10.0548   10.5335 C   0  0  0  0  0  0  0  0  0  0  0  0
   28.3375  -13.0217   11.2185 O   0  0  0  0  0  0  0  0  0  0  0  0
   27.2973  -12.4928   10.6774 C   0  0  0  0  0  0  0  0  0  0  0  0
   25.6363  -13.6932   12.1529 C   0  0  0  0  0  0  0  0  0  0  0  0
   24.3981  -14.5103   12.1299 C   0  0  0  0  0  0  0  0  0  0  0  0
   22.2319  -14.8279   10.9458 C   0  0  0  0  0  0  0  0  0  0  0  0
   20.5578  -15.9837   10.1125 C   0  0  0  0  0  0  0  0  0  0  0  0
   19.6225  -16.7153    9.3780 C   0  0  0  0  0  0  0  0  0  0  0  0
   18.4308  -17.1618    9.9461 C   0  0  0  0  0  0  0  0  0  0  0  0
   18.1418  -16.8902   11.2628 C   0  0  0  0  0  0  0  0  0  0  0  0
   19.0553  -16.1713   11.9934 C   0  0  0  0  0  0  0  0  0  0  0  0
   20.2490  -15.7238   11.4238 C   0  0  0  0  0  0  0  0  0  0  0  0
   23.7541  -12.9567   10.2890 C   0  0  0  0  0  0  0  0  0  0  0  0
   25.1475  -13.1911    9.7231 C   0  0  0  0  0  0  0  0  0  0  0  0
   27.5071  -11.3345    8.5000 C   0  0  0  0  0  0  0  0  0  0  0  0
   27.5942  -10.1324    7.7908 C   0  0  0  0  0  0  0  0  0  0  0  0
   27.0491   -6.2347    9.6091 O   0  0  0  0  0  0  0  0  0  0  0  0
   27.2446   -4.8951    9.9882 C   0  0  0  0  0  0  0  0  0  0  0  0
   26.0051   -4.7685   12.1180 C   0  0  0  0  0  0  0  0  0  0  0  0
   25.5102   -4.0149   13.0529 O   0  0  0  0  0  0  0  0  0  0  0  0
   25.7220   -6.1385   12.1376 N   0  0  0  0  0  0  0  0  0  0  0  0
  1 19  1  0
 20  1  1  0
  1 30  1  0
 22  2  1  0
  2 28  1  0
  3 10  2  0
 12  3  1  0
 22  4  2  0
  4 23  1  0
 21  5  1  0
  5 22  1  0
  5 29  1  0
  7  6  1  0
  6 15  2  3
 11  7  2  0
  7 32  1  0
 14  8  2  0
  9 10  1  0
 34  9  2  0
  9 35  1  0
 17 11  1  0
 13 12  2  0
 14 13  1  0
 13 34  1  0
 15 14  1  0
 15 33  1  0
 16 17  2  0
 19 16  1  0
 16 31  1  0
 19 18  2  0
 20 21  1  0
 23 24  1  0
 23 28  2  0
 24 25  2  0
 25 26  1  0
 26 27  2  0
 27 28  1  0
 29 30  1  0
 31 32  2  0
 33 34  1  0
 35 36  2  0
 35 37  1  0
M  END
$$$$
