
     RDKit          3D

 37 42  0  0  0  0  0  0  0  0999 V2000
   23.9648  -12.6993    8.3283 N   0  0  0  0  0  0  0  0  0  0  0  0
   22.5721  -14.0978    3.8263 N   0  0  0  0  0  0  0  0  0  0  0  0
   28.4523   -3.2896   11.6854 C   0  0  0  0  0  0  0  0  0  0  0  0
   22.3248  -12.0125    3.3751 N   0  0  0  0  0  0  0  0  0  0  0  0
   22.9863  -12.5627    5.7403 N   0  0  0  0  0  0  0  0  0  0  0  0
   28.9868   -9.1359   10.5475 C   0  0  0  0  0  0  0  0  0  0  0  0
   27.9017  -10.1043   10.3528 C   0  0  0  0  0  0  0  0  0  0  0  0
   30.9675   -6.8062   10.8143 O   0  0  0  0  0  0  0  0  0  0  0  0
   26.7111   -4.8962   11.5325 C   0  0  0  0  0  0  0  0  0  0  0  0
   27.1195   -3.5920   11.7384 C   0  0  0  0  0  0  0  0  0  0  0  0
   26.6102   -9.5861   10.1641 C   0  0  0  0  0  0  0  0  0  0  0  0
   29.4082   -4.2742   11.4258 C   0  0  0  0  0  0  0  0  0  0  0  0
   28.9837   -5.5772   11.2207 C   0  0  0  0  0  0  0  0  0  0  0  0
   29.6984   -6.8118   10.9278 C   0  0  0  0  0  0  0  0  0  0  0  0
   28.7361   -7.8638   10.8123 C   0  0  0  0  0  0  0  0  0  0  0  0
   25.7323  -11.7992    9.9058 C   0  0  0  0  0  0  0  0  0  0  0  0
   25.5495  -10.4267    9.9445 C   0  0  0  0  0  0  0  0  0  0  0  0
   24.1491  -13.4357   10.5112 O   0  0  0  0  0  0  0  0  0  0  0  0
   24.6021  -12.6606    9.5900 C   0  0  0  0  0  0  0  0  0  0  0  0
   22.5474  -12.4948    8.1313 C   0  0  0  0  0  0  0  0  0  0  0  0
   22.0259  -12.7878    6.7735 C   0  0  0  0  0  0  0  0  0  0  0  0
   22.6450  -12.8556    4.3636 C   0  0  0  0  0  0  0  0  0  0  0  0
   22.0587  -12.7138    2.2497 C   0  0  0  0  0  0  0  0  0  0  0  0
   21.6819  -12.3852    0.9460 C   0  0  0  0  0  0  0  0  0  0  0  0
   21.4733  -13.3623   -0.0256 C   0  0  0  0  0  0  0  0  0  0  0  0
   21.6361  -14.6934    0.2786 C   0  0  0  0  0  0  0  0  0  0  0  0
   22.0064  -15.0267    1.5580 C   0  0  0  0  0  0  0  0  0  0  0  0
   22.2150  -14.0475    2.5313 C   0  0  0  0  0  0  0  0  0  0  0  0
   24.3011  -12.0598    6.0588 C   0  0  0  0  0  0  0  0  0  0  0  0
   24.8388  -12.9555    7.1658 C   0  0  0  0  0  0  0  0  0  0  0  0
   27.0034  -12.3338   10.0932 C   0  0  0  0  0  0  0  0  0  0  0  0
   28.0675  -11.4542   10.3160 C   0  0  0  0  0  0  0  0  0  0  0  0
   27.4852   -7.2748   11.0310 O   0  0  0  0  0  0  0  0  0  0  0  0
   27.6308   -5.8977   11.2736 C   0  0  0  0  0  0  0  0  0  0  0  0
   25.2917   -5.1683   11.5648 C   0  0  0  0  0  0  0  0  0  0  0  0
   24.4665   -4.1994   11.8238 O   0  0  0  0  0  0  0  0  0  0  0  0
   24.7749   -6.4459   11.3237 N   0  0  0  0  0  0  0  0  0  0  0  0
  1 19  1  0
 20  1  1  0
  1 30  1  0
 22  2  1  0
  2 28  1  0
  3 10  2  0
 12  3  1  0
 22  4  2  0
  4 23  1  0
 21  5  1  0
  5 22  1  0
  5 29  1  0
  7  6  1  0
  6 15  2  3
 11  7  2  0
  7 32  1  0
 14  8  2  0
  9 10  1  0
 34  9  2  0
  9 35  1  0
 17 11  1  0
 13 12  2  0
 14 13  1  0
 13 34  1  0
 15 14  1  0
 15 33  1  0
 16 17  2  0
 19 16  1  0
 16 31  1  0
 19 18  2  0
 20 21  1  0
 23 24  1  0
 23 28  2  0
 24 25  2  0
 25 26  1  0
 26 27  2  0
 27 28  1  0
 29 30  1  0
 31 32  2  0
 33 34  1  0
 35 36  2  0
 35 37  1  0
M  END
$$$$
