
     RDKit          3D

 55 57  0  0  0  0  0  0  0  0999 V2000
   34.7148  -29.2164   38.2538 N   0  0  0  0  0  0  0  0  0  0  0  0
   33.9755  -30.2825   38.6037 C   0  0  0  0  0  0  0  0  0  0  0  0
   33.7636  -31.2900   37.7391 N   0  0  0  0  0  0  0  0  0  0  0  0
   34.2790  -31.2738   36.4962 C   0  0  0  0  0  0  0  0  0  0  0  0
   35.0365  -30.1662   36.1588 C   0  0  0  0  0  0  0  0  0  0  0  0
   35.2659  -29.1221   37.0305 C   0  0  0  0  0  0  0  0  0  0  0  0
   36.0447  -27.9924   36.6710 N   0  0  0  0  0  0  0  0  0  0  0  0
   35.4294  -30.3975   34.8765 N   0  0  0  0  0  0  0  0  0  0  0  0
   34.9473  -31.5641   34.4570 C   0  0  0  0  0  0  0  0  0  0  0  0
   34.2311  -32.1243   35.4452 N   0  0  0  0  0  0  0  0  0  0  0  0
   33.5287  -33.3635   35.4670 C   0  0  1  0  0  0  0  0  0  0  0  0
   32.2239  -33.3141   34.6597 C   0  0  2  0  0  0  0  0  0  0  0  0
   31.2647  -32.5626   35.3037 O   0  0  0  0  0  0  0  0  0  0  0  0
   31.8995  -34.8163   34.7038 C   0  0  2  0  0  0  0  0  0  0  0  0
   31.5322  -35.0861   36.0054 O   0  0  0  0  0  0  0  0  0  0  0  0
   33.3007  -35.3768   34.5037 C   0  0  2  0  0  0  0  0  0  0  0  0
   34.1947  -34.4117   34.8987 O   0  0  0  0  0  0  0  0  0  0  0  0
   33.5429  -35.7084   33.0401 C   0  0  0  0  0  0  0  0  0  0  0  0
   34.8719  -35.4337   32.7607 O   0  0  0  0  0  0  0  0  0  0  0  0
   29.8582  -36.3347   37.5742 O   0  0  0  0  0  0  0  0  0  0  0  0
   30.0815  -35.8873   36.1703 P   0  0  1  0  0  5  0  0  0  0  0  0
   28.8388  -34.7795   35.7721 O   0  0  0  0  0  0  0  0  0  0  0  0
   29.9282  -37.1698   35.0649 O   0  0  0  0  0  0  0  0  0  0  0  0
   35.1005  -34.6502   31.3036 P   0  0  1  0  0  5  0  0  0  0  0  0
   36.6890  -34.8434   30.7145 O   0  0  0  0  0  0  0  0  0  0  0  0
   34.1951  -35.3323   30.2754 O   0  0  0  0  0  0  0  0  0  0  0  0
   34.6674  -33.0292   31.3277 O   0  0  0  0  0  0  0  0  0  0  0  0
   35.6037  -32.0905   30.2845 P   0  0  1  0  0  5  0  0  0  0  0  0
   37.0538  -32.9417   29.9874 O   0  0  0  0  0  0  0  0  0  0  0  0
   34.8709  -32.0330   28.9513 O   0  0  0  0  0  0  0  0  0  0  0  0
   35.9492  -30.5698   30.8761 O   0  0  0  0  0  0  0  0  0  0  0  0
   35.6059  -29.5984   29.9707 C   0  0  0  0  0  0  0  0  0  0  0  0
   35.8967  -28.2006   30.4959 C   0  0  2  0  0  0  0  0  0  0  0  0
   34.8888  -27.2132   29.9875 C   0  0  0  0  0  0  0  0  0  0  0  0
   37.2951  -27.8431   30.0404 C   0  0  0  0  0  0  0  0  0  0  0  0
   35.8008  -28.2373   32.0264 C   0  0  1  0  0  0  0  0  0  0  0  0
   36.5115  -27.0898   32.4644 O   0  0  0  0  0  0  0  0  0  0  0  0
   34.4089  -28.1516   32.4970 C   0  0  0  0  0  0  0  0  0  0  0  0
   33.7217  -29.2340   32.4688 O   0  0  0  0  0  0  0  0  0  0  0  0
   33.7595  -26.9996   32.9713 N   0  0  0  0  0  0  0  0  0  0  0  0
   32.3805  -27.0165   33.3754 C   0  0  0  0  0  0  0  0  0  0  0  0
   32.1957  -27.1049   34.8712 C   0  0  0  0  0  0  0  0  0  0  0  0
   30.7226  -27.0746   35.1923 C   0  0  0  0  0  0  0  0  0  0  0  0
   30.0522  -28.1315   35.1274 O   0  0  0  0  0  0  0  0  0  0  0  0
   30.1372  -25.8535   35.5583 N   0  0  0  0  0  0  0  0  0  0  0  0
   28.7119  -25.6607   35.8070 C   0  0  0  0  0  0  0  0  0  0  0  0
   28.5424  -24.4343   36.6489 C   0  0  0  0  0  0  0  0  0  0  0  0
   27.5096  -24.7259   38.0627 S   0  0  0  0  0  0  0  0  0  0  0  0
   25.8816  -25.2864   37.6812 C   0  0  0  0  0  0  0  0  0  0  0  0
   25.7053  -25.9471   36.6402 O   0  0  0  0  0  0  0  0  0  0  0  0
   24.6585  -25.0650   38.4789 C   0  0  0  0  0  0  0  0  0  0  0  0
   23.5628  -26.0383   37.9770 C   0  0  0  0  0  0  0  0  0  0  0  0
   24.9175  -25.4604   39.8771 N   0  0  0  0  0  4  0  0  0  0  0  0
   25.4157  -26.7116   40.1354 O   0  0  0  0  0  1  0  0  0  0  0  0
   24.6892  -24.6756   40.8058 O   0  0  0  0  0  0  0  0  0  0  0  0
  1  2  2  0
  1  6  1  0
  2  3  1  0
  3  4  2  0
  4  5  1  0
  4 10  1  0
  5  6  2  0
  5  8  1  0
  6  7  1  0
  8  9  2  0
  9 10  1  0
 11 10  1  6
 11 12  1  0
 11 17  1  0
 12 13  1  1
 12 14  1  0
 14 15  1  1
 14 16  1  0
 15 21  1  0
 16 17  1  0
 16 18  1  6
 18 19  1  0
 19 24  1  0
 21 20  2  0
 21 22  1  6
 21 23  1  0
 24 25  1  6
 24 26  2  0
 24 27  1  0
 27 28  1  0
 28 29  1  6
 28 30  2  0
 28 31  1  0
 31 32  1  0
 32 33  1  0
 33 34  1  6
 33 35  1  0
 33 36  1  0
 36 37  1  1
 36 38  1  0
 38 39  2  0
 38 40  1  0
 40 41  1  0
 41 42  1  0
 42 43  1  0
 43 44  2  0
 43 45  1  0
 45 46  1  0
 46 47  1  0
 47 48  1  0
 48 49  1  0
 49 50  2  0
 49 51  1  0
 51 52  1  0
 51 53  1  0
 53 54  1  0
 53 55  2  0
M  CHG  2  53   1  54  -1
M  END
$$$$
