
     RDKit          3D

 55 57  0  0  0  0  0  0  0  0999 V2000
   20.2303   26.1060   25.6487 N   0  0  0  0  0  0  0  0  0  0  0  0
   21.3636   26.2865   24.9496 C   0  0  0  0  0  0  0  0  0  0  0  0
   21.3831   26.1337   23.6140 N   0  0  0  0  0  0  0  0  0  0  0  0
   20.2772   25.7961   22.9258 C   0  0  0  0  0  0  0  0  0  0  0  0
   19.1227   25.6155   23.6669 C   0  0  0  0  0  0  0  0  0  0  0  0
   19.0812   25.7674   25.0372 C   0  0  0  0  0  0  0  0  0  0  0  0
   17.8902   25.5790   25.7844 N   0  0  0  0  0  0  0  0  0  0  0  0
   18.1738   25.2872   22.7483 N   0  0  0  0  0  0  0  0  0  0  0  0
   18.7079   25.2677   21.5302 C   0  0  0  0  0  0  0  0  0  0  0  0
   20.0111   25.5802   21.6171 N   0  0  0  0  0  0  0  0  0  0  0  0
   20.9897   25.6861   20.5872 C   0  0  1  0  0  0  0  0  0  0  0  0
   21.1968   24.3642   19.8347 C   0  0  2  0  0  0  0  0  0  0  0  0
   21.8665   23.4447   20.6129 O   0  0  0  0  0  0  0  0  0  0  0  0
   22.0827   24.9100   18.7030 C   0  0  2  0  0  0  0  0  0  0  0  0
   23.2963   25.2117   19.2843 O   0  0  0  0  0  0  0  0  0  0  0  0
   21.3657   26.2276   18.4427 C   0  0  2  0  0  0  0  0  0  0  0  0
   20.6757   26.5576   19.5836 O   0  0  0  0  0  0  0  0  0  0  0  0
   20.3830   26.0864   17.2917 C   0  0  0  0  0  0  0  0  0  0  0  0
   19.7992   24.8335   17.3881 O   0  0  0  0  0  0  0  0  0  0  0  0
   25.2727   25.2682   17.5776 O   0  0  0  0  0  0  0  0  0  0  0  0
   24.6056   24.4305   18.6141 P   0  0  1  0  0  5  0  0  0  0  0  0
   25.7352   24.1579   19.8708 O   0  0  0  0  0  0  0  0  0  0  0  0
   24.1976   22.8915   18.0182 O   0  0  0  0  0  0  0  0  0  0  0  0
   18.1518   24.8408   17.1134 P   0  0  1  0  0  5  0  0  0  0  0  0
   17.2957   24.0075   18.3301 O   0  0  0  0  0  0  0  0  0  0  0  0
   17.6837   26.2950   17.2040 O   0  0  0  0  0  0  0  0  0  0  0  0
   17.7137   24.2869   15.5912 O   0  0  0  0  0  0  0  0  0  0  0  0
   19.0110   24.2537   14.5133 P   0  0  1  0  0  5  0  0  0  0  0  0
   18.4389   23.6101   13.0387 O   0  0  0  0  0  0  0  0  0  0  0  0
   19.3898   25.6989   14.2207 O   0  0  0  0  0  0  0  0  0  0  0  0
   20.3123   23.3618   15.0549 O   0  0  0  0  0  0  0  0  0  0  0  0
   20.9311   22.7120   14.0175 C   0  0  0  0  0  0  0  0  0  0  0  0
   22.1272   21.8976   14.4870 C   0  0  2  0  0  0  0  0  0  0  0  0
   23.2119   22.7885   15.0153 C   0  0  0  0  0  0  0  0  0  0  0  0
   22.6057   21.0949   13.2965 C   0  0  0  0  0  0  0  0  0  0  0  0
   21.6624   20.9822   15.6267 C   0  0  1  0  0  0  0  0  0  0  0  0
   20.2949   20.7216   15.3512 O   0  0  0  0  0  0  0  0  0  0  0  0
   22.4006   19.7090   15.6516 C   0  0  0  0  0  0  0  0  0  0  0  0
   21.7003   18.6363   15.7107 O   0  0  0  0  0  0  0  0  0  0  0  0
   23.7966   19.5549   15.6197 N   0  0  0  0  0  0  0  0  0  0  0  0
   24.4318   18.3110   15.9579 C   0  0  0  0  0  0  0  0  0  0  0  0
   25.9372   18.4052   16.0215 C   0  0  0  0  0  0  0  0  0  0  0  0
   26.5148   17.0220   16.1871 C   0  0  0  0  0  0  0  0  0  0  0  0
   25.7632   16.0701   16.5025 O   0  0  0  0  0  0  0  0  0  0  0  0
   27.8901   16.8366   15.9818 N   0  0  0  0  0  0  0  0  0  0  0  0
   28.9144   17.0457   17.0004 C   0  0  0  0  0  0  0  0  0  0  0  0
   28.9032   15.8703   17.9278 C   0  0  0  0  0  0  0  0  0  0  0  0
   29.2766   14.3497   17.0917 S   0  0  0  0  0  0  0  0  0  0  0  0
   30.8195   14.3395   16.2379 C   0  0  0  0  0  0  0  0  0  0  0  0
   31.4264   15.4166   16.0865 O   0  0  0  0  0  0  0  0  0  0  0  0
   31.5079   13.1647   15.6655 C   0  0  0  0  0  0  0  0  0  0  0  0
   30.4765   12.3367   14.8591 C   0  0  0  0  0  0  0  0  0  0  0  0
   32.4984   13.6237   14.6724 N   0  0  0  0  0  4  0  0  0  0  0  0
   32.8565   14.9472   14.6495 O   0  0  0  0  0  1  0  0  0  0  0  0
   33.0007   12.8274   13.8698 O   0  0  0  0  0  0  0  0  0  0  0  0
  1  2  2  0
  1  6  1  0
  2  3  1  0
  3  4  2  0
  4  5  1  0
  4 10  1  0
  5  6  2  0
  5  8  1  0
  6  7  1  0
  8  9  2  0
  9 10  1  0
 11 10  1  1
 11 12  1  0
 11 17  1  0
 12 13  1  1
 12 14  1  0
 14 15  1  1
 14 16  1  0
 15 21  1  0
 16 17  1  0
 16 18  1  6
 18 19  1  0
 19 24  1  0
 21 20  2  0
 21 22  1  1
 21 23  1  0
 24 25  1  1
 24 26  2  0
 24 27  1  0
 27 28  1  0
 28 29  1  6
 28 30  2  0
 28 31  1  0
 31 32  1  0
 32 33  1  0
 33 34  1  1
 33 35  1  0
 33 36  1  0
 36 37  1  6
 36 38  1  0
 38 39  2  0
 38 40  1  0
 40 41  1  0
 41 42  1  0
 42 43  1  0
 43 44  2  0
 43 45  1  0
 45 46  1  0
 46 47  1  0
 47 48  1  0
 48 49  1  0
 49 50  2  0
 49 51  1  0
 51 52  1  0
 51 53  1  0
 53 54  1  0
 53 55  2  0
M  CHG  2  53   1  54  -1
M  END
$$$$
