
     RDKit          3D

 55 57  0  0  0  0  0  0  0  0999 V2000
   24.2119  -31.1303   34.3445 N   0  0  0  0  0  0  0  0  0  0  0  0
   25.0487  -32.1663   34.1645 C   0  0  0  0  0  0  0  0  0  0  0  0
   26.3767  -32.0150   34.3102 N   0  0  0  0  0  0  0  0  0  0  0  0
   26.9201  -30.8290   34.6398 C   0  0  0  0  0  0  0  0  0  0  0  0
   26.0390  -29.7773   34.8198 C   0  0  0  0  0  0  0  0  0  0  0  0
   24.6739  -29.9112   34.6753 C   0  0  0  0  0  0  0  0  0  0  0  0
   23.7821  -28.8242   34.8629 N   0  0  0  0  0  0  0  0  0  0  0  0
   26.8310  -28.7178   35.1396 N   0  0  0  0  0  0  0  0  0  0  0  0
   28.1072  -29.0925   35.1547 C   0  0  0  0  0  0  0  0  0  0  0  0
   28.1854  -30.3975   34.8476 N   0  0  0  0  0  0  0  0  0  0  0  0
   29.3309  -31.2376   34.7404 C   0  0  1  0  0  0  0  0  0  0  0  0
   29.9055  -31.2695   33.3172 C   0  0  2  0  0  0  0  0  0  0  0  0
   29.0906  -31.9819   32.4640 O   0  0  0  0  0  0  0  0  0  0  0  0
   31.2029  -32.0295   33.6377 C   0  0  2  0  0  0  0  0  0  0  0  0
   30.8225  -33.3237   33.9241 O   0  0  0  0  0  0  0  0  0  0  0  0
   31.5605  -31.3605   34.9576 C   0  0  2  0  0  0  0  0  0  0  0  0
   30.4035  -30.8451   35.4892 O   0  0  0  0  0  0  0  0  0  0  0  0
   32.5515  -30.2295   34.7357 C   0  0  0  0  0  0  0  0  0  0  0  0
   31.9883  -29.3489   33.8263 O   0  0  0  0  0  0  0  0  0  0  0  0
   31.6915  -35.7865   33.8783 O   0  0  0  0  0  0  0  0  0  0  0  0
   31.6904  -34.5000   33.1259 P   0  0  1  0  0  5  0  0  0  0  0  0
   30.9162  -34.7746   31.6243 O   0  0  0  0  0  0  0  0  0  0  0  0
   33.2660  -33.9871   32.7460 O   0  0  0  0  0  0  0  0  0  0  0  0
   32.7603  -27.8693   33.7625 P   0  0  1  0  0  5  0  0  0  0  0  0
   33.1090  -27.3969   32.1616 O   0  0  0  0  0  0  0  0  0  0  0  0
   31.7791  -26.8228   34.2954 O   0  0  0  0  0  0  0  0  0  0  0  0
   34.1332  -27.7766   34.7230 O   0  0  0  0  0  0  0  0  0  0  0  0
   35.1522  -26.5072   34.2799 P   0  0  1  0  0  5  0  0  0  0  0  0
   34.2899  -25.0510   34.5079 O   0  0  0  0  0  0  0  0  0  0  0  0
   36.2967  -26.4779   35.2832 O   0  0  0  0  0  0  0  0  0  0  0  0
   35.6995  -26.6023   32.7071 O   0  0  0  0  0  0  0  0  0  0  0  0
   35.6213  -25.3834   32.0829 C   0  0  0  0  0  0  0  0  0  0  0  0
   36.8474  -25.1009   31.2278 C   0  0  2  0  0  0  0  0  0  0  0  0
   36.4963  -25.0881   29.7697 C   0  0  0  0  0  0  0  0  0  0  0  0
   37.8588  -26.1825   31.5405 C   0  0  0  0  0  0  0  0  0  0  0  0
   37.3807  -23.7127   31.6038 C   0  0  1  0  0  0  0  0  0  0  0  0
   37.8763  -23.8577   32.9256 O   0  0  0  0  0  0  0  0  0  0  0  0
   38.4777  -23.2824   30.7218 C   0  0  0  0  0  0  0  0  0  0  0  0
   38.5561  -22.0279   30.4672 O   0  0  0  0  0  0  0  0  0  0  0  0
   39.4448  -24.1119   30.1300 N   0  0  0  0  0  0  0  0  0  0  0  0
   40.4604  -23.5917   29.2564 C   0  0  0  0  0  0  0  0  0  0  0  0
   41.7836  -23.3621   29.9461 C   0  0  0  0  0  0  0  0  0  0  0  0
   42.9024  -23.7838   29.0271 C   0  0  0  0  0  0  0  0  0  0  0  0
   44.0926  -23.6204   29.3839 O   0  0  0  0  0  0  0  0  0  0  0  0
   42.5778  -24.3528   27.7866 N   0  0  0  0  0  0  0  0  0  0  0  0
   43.5183  -24.5248   26.6837 C   0  0  0  0  0  0  0  0  0  0  0  0
   44.1549  -25.8737   26.8135 C   0  0  0  0  0  0  0  0  0  0  0  0
   45.3153  -26.1986   25.5103 S   0  0  0  0  0  0  0  0  0  0  0  0
   46.8133  -25.2735   25.6118 C   0  0  0  0  0  0  0  0  0  0  0  0
   46.8977  -24.3630   26.4574 O   0  0  0  0  0  0  0  0  0  0  0  0
   48.0266  -25.4588   24.7902 C   0  0  0  0  0  0  0  0  0  0  0  0
   47.7425  -26.5587   23.7370 C   0  0  0  0  0  0  0  0  0  0  0  0
   48.2725  -24.2298   24.0109 N   0  0  0  0  0  4  0  0  0  0  0  0
   48.7056  -24.3373   22.7142 O   0  0  0  0  0  1  0  0  0  0  0  0
   48.0912  -23.1160   24.5180 O   0  0  0  0  0  0  0  0  0  0  0  0
  1  2  2  0
  1  6  1  0
  2  3  1  0
  3  4  2  0
  4  5  1  0
  4 10  1  0
  5  6  2  0
  5  8  1  0
  6  7  1  0
  8  9  2  0
  9 10  1  0
 11 10  1  6
 11 12  1  0
 11 17  1  0
 12 13  1  6
 12 14  1  0
 14 15  1  1
 14 16  1  0
 15 21  1  0
 16 17  1  0
 16 18  1  6
 18 19  1  0
 19 24  1  0
 21 20  2  0
 21 22  1  6
 21 23  1  0
 24 25  1  6
 24 26  2  0
 24 27  1  0
 27 28  1  0
 28 29  1  6
 28 30  2  0
 28 31  1  0
 31 32  1  0
 32 33  1  0
 33 34  1  6
 33 35  1  0
 33 36  1  0
 36 37  1  1
 36 38  1  0
 38 39  2  0
 38 40  1  0
 40 41  1  0
 41 42  1  0
 42 43  1  0
 43 44  2  0
 43 45  1  0
 45 46  1  0
 46 47  1  0
 47 48  1  0
 48 49  1  0
 49 50  2  0
 49 51  1  0
 51 52  1  0
 51 53  1  0
 53 54  1  0
 53 55  2  0
M  CHG  2  53   1  54  -1
M  END
$$$$
