
     RDKit          3D

 55 57  0  0  0  0  0  0  0  0999 V2000
   23.9636   19.5826   18.9626 N   0  0  0  0  0  0  0  0  0  0  0  0
   22.6774   19.6944   19.3352 C   0  0  0  0  0  0  0  0  0  0  0  0
   21.9791   20.8146   19.0800 N   0  0  0  0  0  0  0  0  0  0  0  0
   22.5341   21.8633   18.4455 C   0  0  0  0  0  0  0  0  0  0  0  0
   23.8592   21.7250   18.0716 C   0  0  0  0  0  0  0  0  0  0  0  0
   24.5933   20.5848   18.3237 C   0  0  0  0  0  0  0  0  0  0  0  0
   25.9513   20.4568   17.9347 N   0  0  0  0  0  0  0  0  0  0  0  0
   24.1678   22.9021   17.4622 N   0  0  0  0  0  0  0  0  0  0  0  0
   23.1077   23.7055   17.4622 C   0  0  0  0  0  0  0  0  0  0  0  0
   22.0838   23.0815   18.0668 N   0  0  0  0  0  0  0  0  0  0  0  0
   20.7553   23.5380   18.3041 C   0  0  1  0  0  0  0  0  0  0  0  0
   20.7105   24.7601   19.2321 C   0  0  2  0  0  0  0  0  0  0  0  0
   21.0067   24.4125   20.5325 O   0  0  0  0  0  0  0  0  0  0  0  0
   19.2211   25.0970   19.0544 C   0  0  2  0  0  0  0  0  0  0  0  0
   18.5270   24.0988   19.7052 O   0  0  0  0  0  0  0  0  0  0  0  0
   19.0872   24.8406   17.5597 C   0  0  2  0  0  0  0  0  0  0  0  0
   20.0921   23.9784   17.1944 O   0  0  0  0  0  0  0  0  0  0  0  0
   19.2351   26.1352   16.7771 C   0  0  0  0  0  0  0  0  0  0  0  0
   20.4770   26.6700   17.0791 O   0  0  0  0  0  0  0  0  0  0  0  0
   16.5033   24.5455   21.2950 O   0  0  0  0  0  0  0  0  0  0  0  0
   16.8925   24.3751   19.8665 P   0  0  1  0  0  5  0  0  0  0  0  0
   16.5397   25.8384   19.0517 O   0  0  0  0  0  0  0  0  0  0  0  0
   15.9612   23.1807   19.0945 O   0  0  0  0  0  0  0  0  0  0  0  0
   20.6375   28.2746   16.6444 P   0  0  1  0  0  5  0  0  0  0  0  0
   19.3632   29.2328   17.2491 O   0  0  0  0  0  0  0  0  0  0  0  0
   21.9051   28.8026   17.3200 O   0  0  0  0  0  0  0  0  0  0  0  0
   20.8333   28.5162   14.9954 O   0  0  0  0  0  0  0  0  0  0  0  0
   22.0922   27.5979   14.3488 P   0  0  1  0  0  5  0  0  0  0  0  0
   21.4216   26.5661   13.1650 O   0  0  0  0  0  0  0  0  0  0  0  0
   23.0085   28.5553   13.5996 O   0  0  0  0  0  0  0  0  0  0  0  0
   22.9191   26.6977   15.4836 O   0  0  0  0  0  0  0  0  0  0  0  0
   23.4204   25.5469   14.9307 C   0  0  0  0  0  0  0  0  0  0  0  0
   23.8262   24.5343   15.9910 C   0  0  2  0  0  0  0  0  0  0  0  0
   24.1347   25.2117   17.2931 C   0  0  0  0  0  0  0  0  0  0  0  0
   25.0346   23.7978   15.4543 C   0  0  0  0  0  0  0  0  0  0  0  0
   22.6459   23.5808   16.2156 C   0  0  1  0  0  0  0  0  0  0  0  0
   22.5371   22.8437   15.0080 O   0  0  0  0  0  0  0  0  0  0  0  0
   22.8894   22.6495   17.3291 C   0  0  0  0  0  0  0  0  0  0  0  0
   22.2722   22.8883   18.4276 O   0  0  0  0  0  0  0  0  0  0  0  0
   23.7335   21.5267   17.3064 N   0  0  0  0  0  0  0  0  0  0  0  0
   23.9454   20.7115   18.4708 C   0  0  0  0  0  0  0  0  0  0  0  0
   22.8316   19.7236   18.7210 C   0  0  0  0  0  0  0  0  0  0  0  0
   23.3785   18.5399   19.4785 C   0  0  0  0  0  0  0  0  0  0  0  0
   23.9034   18.7125   20.6034 O   0  0  0  0  0  0  0  0  0  0  0  0
   23.2842   17.2661   18.8984 N   0  0  0  0  0  0  0  0  0  0  0  0
   23.6978   16.0273   19.5503 C   0  0  0  0  0  0  0  0  0  0  0  0
   24.2790   15.1196   18.5111 C   0  0  0  0  0  0  0  0  0  0  0  0
   23.3915   13.5878   18.3830 S   0  0  0  0  0  0  0  0  0  0  0  0
   22.0996   13.5844   17.1826 C   0  0  0  0  0  0  0  0  0  0  0  0
   21.4869   14.6457   16.9606 O   0  0  0  0  0  0  0  0  0  0  0  0
   21.6441   12.4353   16.3743 C   0  0  0  0  0  0  0  0  0  0  0  0
   20.1687   12.1341   16.7378 C   0  0  0  0  0  0  0  0  0  0  0  0
   21.6209   12.8267   14.9515 N   0  0  0  0  0  4  0  0  0  0  0  0
   21.9347   11.8931   13.9973 O   0  0  0  0  0  1  0  0  0  0  0  0
   21.3227   13.9810   14.6209 O   0  0  0  0  0  0  0  0  0  0  0  0
  1  2  2  0
  1  6  1  0
  2  3  1  0
  3  4  2  0
  4  5  1  0
  4 10  1  0
  5  6  2  0
  5  8  1  0
  6  7  1  0
  8  9  2  0
  9 10  1  0
 11 10  1  6
 11 12  1  0
 11 17  1  0
 12 13  1  1
 12 14  1  0
 14 15  1  1
 14 16  1  0
 15 21  1  0
 16 17  1  0
 16 18  1  6
 18 19  1  0
 19 24  1  0
 21 20  2  0
 21 22  1  6
 21 23  1  0
 24 25  1  1
 24 26  2  0
 24 27  1  0
 27 28  1  0
 28 29  1  6
 28 30  2  0
 28 31  1  0
 31 32  1  0
 32 33  1  0
 33 34  1  1
 33 35  1  0
 33 36  1  0
 36 37  1  6
 36 38  1  0
 38 39  2  0
 38 40  1  0
 40 41  1  0
 41 42  1  0
 42 43  1  0
 43 44  2  0
 43 45  1  0
 45 46  1  0
 46 47  1  0
 47 48  1  0
 48 49  1  0
 49 50  2  0
 49 51  1  0
 51 52  1  0
 51 53  1  0
 53 54  1  0
 53 55  2  0
M  CHG  2  53   1  54  -1
M  END
$$$$
