
     RDKit          3D

 55 57  0  0  0  0  0  0  0  0999 V2000
   22.4348  -29.4467   31.5893 N   0  0  0  0  0  0  0  0  0  0  0  0
   22.7692  -30.6596   31.1171 C   0  0  0  0  0  0  0  0  0  0  0  0
   23.8888  -31.2777   31.5318 N   0  0  0  0  0  0  0  0  0  0  0  0
   24.7158  -30.7126   32.4303 C   0  0  0  0  0  0  0  0  0  0  0  0
   24.3509  -29.4640   32.9021 C   0  0  0  0  0  0  0  0  0  0  0  0
   23.2070  -28.8127   32.4898 C   0  0  0  0  0  0  0  0  0  0  0  0
   22.8451  -27.5325   32.9819 N   0  0  0  0  0  0  0  0  0  0  0  0
   25.3366  -29.1272   33.7779 N   0  0  0  0  0  0  0  0  0  0  0  0
   26.2419  -30.0998   33.8392 C   0  0  0  0  0  0  0  0  0  0  0  0
   25.8767  -31.0925   33.0118 N   0  0  0  0  0  0  0  0  0  0  0  0
   26.5240  -32.3322   32.7404 C   0  0  1  0  0  0  0  0  0  0  0  0
   27.2685  -32.3252   31.3979 C   0  0  2  0  0  0  0  0  0  0  0  0
   26.3889  -32.3559   30.3373 O   0  0  0  0  0  0  0  0  0  0  0  0
   28.0080  -33.6624   31.5675 C   0  0  2  0  0  0  0  0  0  0  0  0
   27.0444  -34.6436   31.4637 O   0  0  0  0  0  0  0  0  0  0  0  0
   28.3837  -33.5512   33.0386 C   0  0  2  0  0  0  0  0  0  0  0  0
   27.5051  -32.6744   33.6268 O   0  0  0  0  0  0  0  0  0  0  0  0
   29.7977  -33.0152   33.1930 C   0  0  0  0  0  0  0  0  0  0  0  0
   30.1541  -33.1461   34.5255 O   0  0  0  0  0  0  0  0  0  0  0  0
   28.8968  -36.3581   30.7920 O   0  0  0  0  0  0  0  0  0  0  0  0
   27.4830  -35.9588   30.5410 P   0  0  1  0  0  5  0  0  0  0  0  0
   26.4813  -37.2661   31.0075 O   0  0  0  0  0  0  0  0  0  0  0  0
   27.1788  -35.7115   28.8869 O   0  0  0  0  0  0  0  0  0  0  0  0
   31.6993  -32.6076   34.8602 P   0  0  1  0  0  5  0  0  0  0  0  0
   31.8282  -31.9694   36.4362 O   0  0  0  0  0  0  0  0  0  0  0  0
   32.6204  -33.8295   34.8349 O   0  0  0  0  0  0  0  0  0  0  0  0
   32.3023  -31.5254   33.7283 O   0  0  0  0  0  0  0  0  0  0  0  0
   32.1240  -29.9175   34.2069 P   0  0  1  0  0  5  0  0  0  0  0  0
   30.4612  -29.5376   34.1260 O   0  0  0  0  0  0  0  0  0  0  0  0
   32.4998  -29.8425   35.6803 O   0  0  0  0  0  0  0  0  0  0  0  0
   32.9981  -28.8399   33.2813 O   0  0  0  0  0  0  0  0  0  0  0  0
   34.3393  -28.9302   33.5536 C   0  0  0  0  0  0  0  0  0  0  0  0
   35.1543  -27.9338   32.7429 C   0  0  2  0  0  0  0  0  0  0  0  0
   34.5217  -27.6806   31.4068 C   0  0  0  0  0  0  0  0  0  0  0  0
   36.5411  -28.5211   32.5924 C   0  0  0  0  0  0  0  0  0  0  0  0
   35.1903  -26.6084   33.5141 C   0  0  1  0  0  0  0  0  0  0  0  0
   35.0958  -26.9786   34.8808 O   0  0  0  0  0  0  0  0  0  0  0  0
   36.4484  -25.8754   33.2987 C   0  0  0  0  0  0  0  0  0  0  0  0
   37.2786  -25.8530   34.2759 O   0  0  0  0  0  0  0  0  0  0  0  0
   36.8268  -25.1962   32.1287 N   0  0  0  0  0  0  0  0  0  0  0  0
   37.9645  -24.3190   32.0933 C   0  0  0  0  0  0  0  0  0  0  0  0
   39.2743  -25.0265   32.3445 C   0  0  0  0  0  0  0  0  0  0  0  0
   40.0396  -25.1293   31.0493 C   0  0  0  0  0  0  0  0  0  0  0  0
   40.2457  -26.2551   30.5387 O   0  0  0  0  0  0  0  0  0  0  0  0
   40.5044  -23.9515   30.4454 N   0  0  0  0  0  0  0  0  0  0  0  0
   41.0910  -23.8817   29.1106 C   0  0  0  0  0  0  0  0  0  0  0  0
   40.7558  -22.5484   28.5179 C   0  0  0  0  0  0  0  0  0  0  0  0
   41.2792  -22.4125   26.8273 S   0  0  0  0  0  0  0  0  0  0  0  0
   42.8894  -23.0538   26.5021 C   0  0  0  0  0  0  0  0  0  0  0  0
   43.2553  -24.0829   27.1008 O   0  0  0  0  0  0  0  0  0  0  0  0
   43.8907  -22.5024   25.5668 C   0  0  0  0  0  0  0  0  0  0  0  0
   44.5406  -23.6779   24.7951 C   0  0  0  0  0  0  0  0  0  0  0  0
   43.1990  -21.6994   24.5396 N   0  0  0  0  0  4  0  0  0  0  0  0
   43.4651  -21.9373   23.2156 O   0  0  0  0  0  1  0  0  0  0  0  0
   42.3894  -20.8226   24.8657 O   0  0  0  0  0  0  0  0  0  0  0  0
  1  2  2  0
  1  6  1  0
  2  3  1  0
  3  4  2  0
  4  5  1  0
  4 10  1  0
  5  6  2  0
  5  8  1  0
  6  7  1  0
  8  9  2  0
  9 10  1  0
 11 10  1  1
 11 12  1  0
 11 17  1  0
 12 13  1  6
 12 14  1  0
 14 15  1  1
 14 16  1  0
 15 21  1  0
 16 17  1  0
 16 18  1  6
 18 19  1  0
 19 24  1  0
 21 20  2  0
 21 22  1  1
 21 23  1  0
 24 25  1  1
 24 26  2  0
 24 27  1  0
 27 28  1  0
 28 29  1  1
 28 30  2  0
 28 31  1  0
 31 32  1  0
 32 33  1  0
 33 34  1  6
 33 35  1  0
 33 36  1  0
 36 37  1  1
 36 38  1  0
 38 39  2  0
 38 40  1  0
 40 41  1  0
 41 42  1  0
 42 43  1  0
 43 44  2  0
 43 45  1  0
 45 46  1  0
 46 47  1  0
 47 48  1  0
 48 49  1  0
 49 50  2  0
 49 51  1  0
 51 52  1  0
 51 53  1  0
 53 54  1  0
 53 55  2  0
M  CHG  2  53   1  54  -1
M  END
$$$$
