
     RDKit          3D

 55 57  0  0  0  0  0  0  0  0999 V2000
   23.0077   30.6751   16.8912 N   0  0  0  0  0  0  0  0  0  0  0  0
   22.0354   30.0680   17.5925 C   0  0  0  0  0  0  0  0  0  0  0  0
   21.9543   28.7270   17.6427 N   0  0  0  0  0  0  0  0  0  0  0  0
   22.8365   27.9417   16.9979 C   0  0  0  0  0  0  0  0  0  0  0  0
   23.8284   28.5892   16.2827 C   0  0  0  0  0  0  0  0  0  0  0  0
   23.9294   29.9633   16.2182 C   0  0  0  0  0  0  0  0  0  0  0  0
   24.9517   30.6138   15.4808 N   0  0  0  0  0  0  0  0  0  0  0  0
   24.5694   27.5855   15.7389 N   0  0  0  0  0  0  0  0  0  0  0  0
   24.0679   26.4061   16.0951 C   0  0  0  0  0  0  0  0  0  0  0  0
   22.9932   26.6035   16.8758 N   0  0  0  0  0  0  0  0  0  0  0  0
   22.1330   25.6508   17.4938 C   0  0  1  0  0  0  0  0  0  0  0  0
   20.7920   25.5067   16.7606 C   0  0  2  0  0  0  0  0  0  0  0  0
   19.9924   26.6119   16.9574 O   0  0  0  0  0  0  0  0  0  0  0  0
   20.2714   24.2795   17.5265 C   0  0  2  0  0  0  0  0  0  0  0  0
   19.9660   24.7264   18.7949 O   0  0  0  0  0  0  0  0  0  0  0  0
   21.5657   23.4843   17.6264 C   0  0  2  0  0  0  0  0  0  0  0  0
   22.6083   24.3704   17.5063 O   0  0  0  0  0  0  0  0  0  0  0  0
   21.6544   22.4592   16.5075 C   0  0  0  0  0  0  0  0  0  0  0  0
   21.6475   21.2011   17.0880 O   0  0  0  0  0  0  0  0  0  0  0  0
   17.5623   25.3207   17.9634 O   0  0  0  0  0  0  0  0  0  0  0  0
   18.3373   24.8144   19.1314 P   0  0  1  0  0  5  0  0  0  0  0  0
   17.7986   23.2244   19.4651 O   0  0  0  0  0  0  0  0  0  0  0  0
   18.0214   25.7137   20.5391 O   0  0  0  0  0  0  0  0  0  0  0  0
   20.4492   20.1989   16.4973 P   0  0  1  0  0  5  0  0  0  0  0  0
   19.2451   19.8838   17.6629 O   0  0  0  0  0  0  0  0  0  0  0  0
   19.7420   20.9540   15.3696 O   0  0  0  0  0  0  0  0  0  0  0  0
   21.0243   18.7689   15.8338 O   0  0  0  0  0  0  0  0  0  0  0  0
   21.1415   17.5265   16.9690 P   0  0  1  0  0  5  0  0  0  0  0  0
   19.8654   16.4323   16.6685 O   0  0  0  0  0  0  0  0  0  0  0  0
   22.4255   16.7647   16.6712 O   0  0  0  0  0  0  0  0  0  0  0  0
   21.0773   18.0527   18.5505 O   0  0  0  0  0  0  0  0  0  0  0  0
   21.4693   17.0635   19.4160 C   0  0  0  0  0  0  0  0  0  0  0  0
   22.3708   17.5956   20.5198 C   0  0  2  0  0  0  0  0  0  0  0  0
   21.6103   17.7671   21.8011 C   0  0  0  0  0  0  0  0  0  0  0  0
   22.9302   18.9145   20.0315 C   0  0  0  0  0  0  0  0  0  0  0  0
   23.4866   16.5707   20.7591 C   0  0  1  0  0  0  0  0  0  0  0  0
   23.0237   15.3773   20.1464 O   0  0  0  0  0  0  0  0  0  0  0  0
   24.7549   16.9748   20.1311 C   0  0  0  0  0  0  0  0  0  0  0  0
   25.7144   17.2936   20.9201 O   0  0  0  0  0  0  0  0  0  0  0  0
   25.0158   17.0478   18.7526 N   0  0  0  0  0  0  0  0  0  0  0  0
   26.3523   17.1613   18.2369 C   0  0  0  0  0  0  0  0  0  0  0  0
   26.7028   16.0838   17.2392 C   0  0  0  0  0  0  0  0  0  0  0  0
   28.1989   15.8963   17.2157 C   0  0  0  0  0  0  0  0  0  0  0  0
   28.8628   16.0769   18.2632 O   0  0  0  0  0  0  0  0  0  0  0  0
   28.8127   15.5216   16.0112 N   0  0  0  0  0  0  0  0  0  0  0  0
   29.8418   14.4934   15.8918 C   0  0  0  0  0  0  0  0  0  0  0  0
   31.0105   14.8964   16.7364 C   0  0  0  0  0  0  0  0  0  0  0  0
   32.3309   13.7123   16.6675 S   0  0  0  0  0  0  0  0  0  0  0  0
   32.7333   13.1530   15.0441 C   0  0  0  0  0  0  0  0  0  0  0  0
   32.1038   13.6217   14.0770 O   0  0  0  0  0  0  0  0  0  0  0  0
   33.7685   12.1651   14.6784 C   0  0  0  0  0  0  0  0  0  0  0  0
   33.1175   10.7597   14.6513 C   0  0  0  0  0  0  0  0  0  0  0  0
   34.2055   12.4169   13.2914 N   0  0  0  0  0  4  0  0  0  0  0  0
   33.4231   13.1933   12.4757 O   0  0  0  0  0  1  0  0  0  0  0  0
   35.2633   11.9352   12.8674 O   0  0  0  0  0  0  0  0  0  0  0  0
  1  2  2  0
  1  6  1  0
  2  3  1  0
  3  4  2  0
  4  5  1  0
  4 10  1  0
  5  6  2  0
  5  8  1  0
  6  7  1  0
  8  9  2  0
  9 10  1  0
 11 10  1  6
 11 12  1  0
 11 17  1  0
 12 13  1  1
 12 14  1  0
 14 15  1  1
 14 16  1  0
 15 21  1  0
 16 17  1  0
 16 18  1  6
 18 19  1  0
 19 24  1  0
 21 20  2  0
 21 22  1  1
 21 23  1  0
 24 25  1  1
 24 26  2  0
 24 27  1  0
 27 28  1  0
 28 29  1  6
 28 30  2  0
 28 31  1  0
 31 32  1  0
 32 33  1  0
 33 34  1  1
 33 35  1  0
 33 36  1  0
 36 37  1  6
 36 38  1  0
 38 39  2  0
 38 40  1  0
 40 41  1  0
 41 42  1  0
 42 43  1  0
 43 44  2  0
 43 45  1  0
 45 46  1  0
 46 47  1  0
 47 48  1  0
 48 49  1  0
 49 50  2  0
 49 51  1  0
 51 52  1  0
 51 53  1  0
 53 54  1  0
 53 55  2  0
M  CHG  2  53   1  54  -1
M  END
$$$$
