
     RDKit          3D

 55 57  0  0  0  0  0  0  0  0999 V2000
   22.7671   28.3720   11.5980 N   0  0  0  0  0  0  0  0  0  0  0  0
   21.9628   28.5961   12.6509 C   0  0  0  0  0  0  0  0  0  0  0  0
   21.7072   27.6242   13.5441 N   0  0  0  0  0  0  0  0  0  0  0  0
   22.2418   26.3954   13.4227 C   0  0  0  0  0  0  0  0  0  0  0  0
   23.0664   26.1884   12.3309 C   0  0  0  0  0  0  0  0  0  0  0  0
   23.3415   27.1714   11.4033 C   0  0  0  0  0  0  0  0  0  0  0  0
   24.1889   26.9452   10.2885 N   0  0  0  0  0  0  0  0  0  0  0  0
   23.4652   24.8921   12.4437 N   0  0  0  0  0  0  0  0  0  0  0  0
   22.9239   24.3428   13.5274 C   0  0  0  0  0  0  0  0  0  0  0  0
   22.1617   25.2570   14.1492 N   0  0  0  0  0  0  0  0  0  0  0  0
   21.3895   25.1364   15.3403 C   0  0  1  0  0  0  0  0  0  0  0  0
   20.0471   24.4308   15.1018 C   0  0  2  0  0  0  0  0  0  0  0  0
   19.1713   25.2409   14.4117 O   0  0  0  0  0  0  0  0  0  0  0  0
   19.6374   24.2683   16.5747 C   0  0  2  0  0  0  0  0  0  0  0  0
   19.3276   25.5350   17.0234 O   0  0  0  0  0  0  0  0  0  0  0  0
   20.9897   23.8966   17.1669 C   0  0  2  0  0  0  0  0  0  0  0  0
   21.9598   24.3749   16.3202 O   0  0  0  0  0  0  0  0  0  0  0  0
   21.1302   22.3874   17.2805 C   0  0  0  0  0  0  0  0  0  0  0  0
   21.3249   21.8856   16.0038 O   0  0  0  0  0  0  0  0  0  0  0  0
   18.1714   25.8844   19.3393 O   0  0  0  0  0  0  0  0  0  0  0  0
   17.9107   25.6415   17.8922 P   0  0  1  0  0  5  0  0  0  0  0  0
   17.0406   26.9852   17.2863 O   0  0  0  0  0  0  0  0  0  0  0  0
   16.9058   24.2923   17.6474 O   0  0  0  0  0  0  0  0  0  0  0  0
   22.3147   20.5412   15.9577 P   0  0  1  0  0  5  0  0  0  0  0  0
   21.4306   19.0896   16.0966 O   0  0  0  0  0  0  0  0  0  0  0  0
   22.9580   20.4993   14.5698 O   0  0  0  0  0  0  0  0  0  0  0  0
   23.5702   20.5825   17.0704 O   0  0  0  0  0  0  0  0  0  0  0  0
   23.4588   19.3548   18.2221 P   0  0  1  0  0  5  0  0  0  0  0  0
   23.5409   20.0855   19.7632 O   0  0  0  0  0  0  0  0  0  0  0  0
   22.0609   18.7617   18.1135 O   0  0  0  0  0  0  0  0  0  0  0  0
   24.6460   18.1916   18.0814 O   0  0  0  0  0  0  0  0  0  0  0  0
   24.7556   17.4566   19.2343 C   0  0  0  0  0  0  0  0  0  0  0  0
   25.8937   16.4497   19.1627 C   0  0  2  0  0  0  0  0  0  0  0  0
   26.1621   15.8431   20.5080 C   0  0  0  0  0  0  0  0  0  0  0  0
   27.1051   17.1934   18.6431 C   0  0  0  0  0  0  0  0  0  0  0  0
   25.4761   15.3259   18.2059 C   0  0  1  0  0  0  0  0  0  0  0  0
   25.0776   15.9887   17.0161 O   0  0  0  0  0  0  0  0  0  0  0  0
   26.5909   14.4148   17.9003 C   0  0  0  0  0  0  0  0  0  0  0  0
   26.8016   13.4607   18.7310 O   0  0  0  0  0  0  0  0  0  0  0  0
   27.4476   14.4900   16.7895 N   0  0  0  0  0  0  0  0  0  0  0  0
   28.4921   13.5279   16.5686 C   0  0  0  0  0  0  0  0  0  0  0  0
   29.8271   14.1561   16.2488 C   0  0  0  0  0  0  0  0  0  0  0  0
   30.9310   13.2530   16.7386 C   0  0  0  0  0  0  0  0  0  0  0  0
   30.6585   12.0892   17.1153 O   0  0  0  0  0  0  0  0  0  0  0  0
   32.2448   13.7443   16.7595 N   0  0  0  0  0  0  0  0  0  0  0  0
   33.4026   12.9911   17.2315 C   0  0  0  0  0  0  0  0  0  0  0  0
   33.5329   11.7553   16.3964 C   0  0  0  0  0  0  0  0  0  0  0  0
   34.2294   12.0929   14.7990 S   0  0  0  0  0  0  0  0  0  0  0  0
   35.8109   12.8723   14.8361 C   0  0  0  0  0  0  0  0  0  0  0  0
   36.6659   12.4523   15.6385 O   0  0  0  0  0  0  0  0  0  0  0  0
   36.2633   13.9994   13.9956 C   0  0  0  0  0  0  0  0  0  0  0  0
   35.8273   15.3224   14.6734 C   0  0  0  0  0  0  0  0  0  0  0  0
   37.7387   14.0342   13.9904 N   0  0  0  0  0  4  0  0  0  0  0  0
   38.3774   15.2400   13.8546 O   0  0  0  0  0  1  0  0  0  0  0  0
   38.3934   12.9908   14.1068 O   0  0  0  0  0  0  0  0  0  0  0  0
  1  2  2  0
  1  6  1  0
  2  3  1  0
  3  4  2  0
  4  5  1  0
  4 10  1  0
  5  6  2  0
  5  8  1  0
  6  7  1  0
  8  9  2  0
  9 10  1  0
 11 10  1  6
 11 12  1  0
 11 17  1  0
 12 13  1  6
 12 14  1  0
 14 15  1  1
 14 16  1  0
 15 21  1  0
 16 17  1  0
 16 18  1  6
 18 19  1  0
 19 24  1  0
 21 20  2  0
 21 22  1  6
 21 23  1  0
 24 25  1  1
 24 26  2  0
 24 27  1  0
 27 28  1  0
 28 29  1  1
 28 30  2  0
 28 31  1  0
 31 32  1  0
 32 33  1  0
 33 34  1  1
 33 35  1  0
 33 36  1  0
 36 37  1  6
 36 38  1  0
 38 39  2  0
 38 40  1  0
 40 41  1  0
 41 42  1  0
 42 43  1  0
 43 44  2  0
 43 45  1  0
 45 46  1  0
 46 47  1  0
 47 48  1  0
 48 49  1  0
 49 50  2  0
 49 51  1  0
 51 52  1  0
 51 53  1  0
 53 54  1  0
 53 55  2  0
M  CHG  2  53   1  54  -1
M  END
$$$$
