
     RDKit          3D

 55 57  0  0  0  0  0  0  0  0999 V2000
   24.2225  -28.1410   33.1924 N   0  0  0  0  0  0  0  0  0  0  0  0
   24.8962  -28.5464   34.2821 C   0  0  0  0  0  0  0  0  0  0  0  0
   25.9483  -29.3766   34.1746 N   0  0  0  0  0  0  0  0  0  0  0  0
   26.3680  -29.8334   32.9806 C   0  0  0  0  0  0  0  0  0  0  0  0
   25.6590  -29.4024   31.8732 C   0  0  0  0  0  0  0  0  0  0  0  0
   24.5772  -28.5512   31.9615 C   0  0  0  0  0  0  0  0  0  0  0  0
   23.8593  -28.1174   30.8176 N   0  0  0  0  0  0  0  0  0  0  0  0
   26.2771  -29.9983   30.8174 N   0  0  0  0  0  0  0  0  0  0  0  0
   27.2932  -30.7420   31.2462 C   0  0  0  0  0  0  0  0  0  0  0  0
   27.3677  -30.6542   32.5841 N   0  0  0  0  0  0  0  0  0  0  0  0
   28.2846  -31.2692   33.4844 C   0  0  1  0  0  0  0  0  0  0  0  0
   28.0619  -32.7831   33.6075 C   0  0  2  0  0  0  0  0  0  0  0  0
   26.9131  -33.0643   34.3151 O   0  0  0  0  0  0  0  0  0  0  0  0
   29.3275  -33.1106   34.4167 C   0  0  2  0  0  0  0  0  0  0  0  0
   29.1163  -32.5907   35.6764 O   0  0  0  0  0  0  0  0  0  0  0  0
   30.3161  -32.1943   33.7091 C   0  0  2  0  0  0  0  0  0  0  0  0
   29.5965  -31.1872   33.1136 O   0  0  0  0  0  0  0  0  0  0  0  0
   31.0834  -32.9551   32.6399 C   0  0  0  0  0  0  0  0  0  0  0  0
   30.3061  -32.9681   31.4931 O   0  0  0  0  0  0  0  0  0  0  0  0
   30.2783  -34.7336   36.6146 O   0  0  0  0  0  0  0  0  0  0  0  0
   30.0284  -33.2890   36.8824 P   0  0  1  0  0  5  0  0  0  0  0  0
   31.5433  -32.4926   36.9024 O   0  0  0  0  0  0  0  0  0  0  0  0
   29.3544  -33.0378   38.4228 O   0  0  0  0  0  0  0  0  0  0  0  0
   31.1619  -32.6212   30.1015 P   0  0  1  0  0  5  0  0  0  0  0  0
   31.0482  -33.8739   28.9502 O   0  0  0  0  0  0  0  0  0  0  0  0
   30.4977  -31.4048   29.4524 O   0  0  0  0  0  0  0  0  0  0  0  0
   32.7650  -32.2070   30.3745 O   0  0  0  0  0  0  0  0  0  0  0  0
   32.9556  -30.5823   30.7867 P   0  0  1  0  0  5  0  0  0  0  0  0
   33.3676  -29.7346   29.3628 O   0  0  0  0  0  0  0  0  0  0  0  0
   31.5875  -30.0607   31.2039 O   0  0  0  0  0  0  0  0  0  0  0  0
   34.1118  -30.3176   31.9595 O   0  0  0  0  0  0  0  0  0  0  0  0
   35.3393  -30.0772   31.3967 C   0  0  0  0  0  0  0  0  0  0  0  0
   36.0321  -28.8797   32.0295 C   0  0  2  0  0  0  0  0  0  0  0  0
   36.3852  -27.8526   30.9951 C   0  0  0  0  0  0  0  0  0  0  0  0
   37.2683  -29.4060   32.7262 C   0  0  0  0  0  0  0  0  0  0  0  0
   35.0593  -28.2390   33.0274 C   0  0  1  0  0  0  0  0  0  0  0  0
   35.5467  -28.6160   34.3057 O   0  0  0  0  0  0  0  0  0  0  0  0
   35.0503  -26.7705   32.9284 C   0  0  0  0  0  0  0  0  0  0  0  0
   34.3750  -26.1358   33.8148 O   0  0  0  0  0  0  0  0  0  0  0  0
   35.7069  -25.9972   31.9565 N   0  0  0  0  0  0  0  0  0  0  0  0
   36.2771  -24.7144   32.2637 C   0  0  0  0  0  0  0  0  0  0  0  0
   37.6944  -24.5549   31.7687 C   0  0  0  0  0  0  0  0  0  0  0  0
   37.7483  -23.4236   30.7730 C   0  0  0  0  0  0  0  0  0  0  0  0
   36.7061  -22.7793   30.5098 O   0  0  0  0  0  0  0  0  0  0  0  0
   38.9746  -23.1202   30.1630 N   0  0  0  0  0  0  0  0  0  0  0  0
   39.9395  -24.1150   29.7049 C   0  0  0  0  0  0  0  0  0  0  0  0
   39.6539  -25.4063   30.4068 C   0  0  0  0  0  0  0  0  0  0  0  0
   40.8678  -26.6505   30.0475 S   0  0  0  0  0  0  0  0  0  0  0  0
   42.3353  -26.0460   29.2789 C   0  0  0  0  0  0  0  0  0  0  0  0
   42.4182  -24.8303   29.0212 O   0  0  0  0  0  0  0  0  0  0  0  0
   43.5242  -26.8342   28.8958 C   0  0  0  0  0  0  0  0  0  0  0  0
   43.1125  -28.3240   28.7927 C   0  0  0  0  0  0  0  0  0  0  0  0
   43.9370  -26.4506   27.5318 N   0  0  0  0  0  4  0  0  0  0  0  0
   44.2654  -27.4327   26.6329 O   0  0  0  0  0  1  0  0  0  0  0  0
   43.9872  -25.2596   27.2008 O   0  0  0  0  0  0  0  0  0  0  0  0
  1  2  2  0
  1  6  1  0
  2  3  1  0
  3  4  2  0
  4  5  1  0
  4 10  1  0
  5  6  2  0
  5  8  1  0
  6  7  1  0
  8  9  2  0
  9 10  1  0
 11 10  1  6
 11 12  1  0
 11 17  1  0
 12 13  1  1
 12 14  1  0
 14 15  1  1
 14 16  1  0
 15 21  1  0
 16 17  1  0
 16 18  1  6
 18 19  1  0
 19 24  1  0
 21 20  2  0
 21 22  1  1
 21 23  1  0
 24 25  1  6
 24 26  2  0
 24 27  1  0
 27 28  1  0
 28 29  1  6
 28 30  2  0
 28 31  1  0
 31 32  1  0
 32 33  1  0
 33 34  1  6
 33 35  1  0
 33 36  1  0
 36 37  1  1
 36 38  1  0
 38 39  2  0
 38 40  1  0
 40 41  1  0
 41 42  1  0
 42 43  1  0
 43 44  2  0
 43 45  1  0
 45 46  1  0
 46 47  1  0
 47 48  1  0
 48 49  1  0
 49 50  2  0
 49 51  1  0
 51 52  1  0
 51 53  1  0
 53 54  1  0
 53 55  2  0
M  CHG  2  53   1  54  -1
M  END
$$$$
