
     RDKit          3D

 55 57  0  0  0  0  0  0  0  0999 V2000
   22.1399   28.5213   16.2025 N   0  0  0  0  0  0  0  0  0  0  0  0
   21.3155   28.2618   17.2314 C   0  0  0  0  0  0  0  0  0  0  0  0
   21.3869   27.0957   17.8968 N   0  0  0  0  0  0  0  0  0  0  0  0
   22.2801   26.1462   17.5632 C   0  0  0  0  0  0  0  0  0  0  0  0
   23.1181   26.4359   16.5009 C   0  0  0  0  0  0  0  0  0  0  0  0
   23.0613   27.6256   15.8052 C   0  0  0  0  0  0  0  0  0  0  0  0
   23.9268   27.9093   14.7178 N   0  0  0  0  0  0  0  0  0  0  0  0
   23.9057   25.3332   16.3753 N   0  0  0  0  0  0  0  0  0  0  0  0
   23.5747   24.4311   17.2950 C   0  0  0  0  0  0  0  0  0  0  0  0
   22.5691   24.9145   18.0423 N   0  0  0  0  0  0  0  0  0  0  0  0
   21.8849   24.3164   19.1395 C   0  0  1  0  0  0  0  0  0  0  0  0
   20.3663   24.2562   18.9231 C   0  0  2  0  0  0  0  0  0  0  0  0
   19.7957   25.5065   19.0270 O   0  0  0  0  0  0  0  0  0  0  0  0
   20.0230   23.3681   20.1302 C   0  0  2  0  0  0  0  0  0  0  0  0
   20.2180   24.1544   21.2463 O   0  0  0  0  0  0  0  0  0  0  0  0
   21.1881   22.3909   20.0561 C   0  0  2  0  0  0  0  0  0  0  0  0
   22.2073   23.0103   19.3748 O   0  0  0  0  0  0  0  0  0  0  0  0
   20.7854   21.1303   19.3083 C   0  0  0  0  0  0  0  0  0  0  0  0
   20.8846   21.3958   17.9520 O   0  0  0  0  0  0  0  0  0  0  0  0
   19.2234   25.0396   23.4933 O   0  0  0  0  0  0  0  0  0  0  0  0
   18.9946   24.0825   22.3741 P   0  0  1  0  0  5  0  0  0  0  0  0
   17.5460   24.5393   21.5851 O   0  0  0  0  0  0  0  0  0  0  0  0
   18.7343   22.4998   22.9373 O   0  0  0  0  0  0  0  0  0  0  0  0
   20.7944   20.0299   16.9952 P   0  0  1  0  0  5  0  0  0  0  0  0
   19.5313   18.9913   17.4784 O   0  0  0  0  0  0  0  0  0  0  0  0
   20.4302   20.4900   15.5818 O   0  0  0  0  0  0  0  0  0  0  0  0
   22.2417   19.1897   16.8711 O   0  0  0  0  0  0  0  0  0  0  0  0
   22.3988   17.9885   18.0453 P   0  0  1  0  0  5  0  0  0  0  0  0
   22.7698   18.7587   19.5234 O   0  0  0  0  0  0  0  0  0  0  0  0
   21.0246   17.3609   18.2331 O   0  0  0  0  0  0  0  0  0  0  0  0
   23.5648   16.8500   17.6902 O   0  0  0  0  0  0  0  0  0  0  0  0
   24.8125   17.2934   18.0480 C   0  0  0  0  0  0  0  0  0  0  0  0
   25.8334   17.0783   16.9408 C   0  0  2  0  0  0  0  0  0  0  0  0
   27.2315   17.1123   17.4828 C   0  0  0  0  0  0  0  0  0  0  0  0
   25.6120   18.1746   15.9211 C   0  0  0  0  0  0  0  0  0  0  0  0
   25.5901   15.6919   16.3313 C   0  0  1  0  0  0  0  0  0  0  0  0
   24.2938   15.7672   15.7588 O   0  0  0  0  0  0  0  0  0  0  0  0
   26.5653   15.3708   15.2767 C   0  0  0  0  0  0  0  0  0  0  0  0
   26.4270   15.9803   14.1569 O   0  0  0  0  0  0  0  0  0  0  0  0
   27.6305   14.4603   15.3765 N   0  0  0  0  0  0  0  0  0  0  0  0
   28.9832   14.8940   15.5941 C   0  0  0  0  0  0  0  0  0  0  0  0
   29.9890   13.7694   15.5388 C   0  0  0  0  0  0  0  0  0  0  0  0
   31.2734   14.2195   16.1881 C   0  0  0  0  0  0  0  0  0  0  0  0
   31.2606   15.1910   16.9797 O   0  0  0  0  0  0  0  0  0  0  0  0
   32.4586   13.5325   15.8858 N   0  0  0  0  0  0  0  0  0  0  0  0
   33.7855   14.1402   15.8668 C   0  0  0  0  0  0  0  0  0  0  0  0
   34.3939   13.9854   17.2261 C   0  0  0  0  0  0  0  0  0  0  0  0
   35.3578   12.5016   17.3670 S   0  0  0  0  0  0  0  0  0  0  0  0
   36.1940   12.3114   18.9080 C   0  0  0  0  0  0  0  0  0  0  0  0
   35.9801   13.1422   19.8109 O   0  0  0  0  0  0  0  0  0  0  0  0
   37.1469   11.2437   19.2733 C   0  0  0  0  0  0  0  0  0  0  0  0
   37.8885   11.6691   20.5651 C   0  0  0  0  0  0  0  0  0  0  0  0
   36.3920   10.0300   19.6411 N   0  0  0  0  0  4  0  0  0  0  0  0
   35.0747   10.1476   20.0032 O   0  0  0  0  0  1  0  0  0  0  0  0
   36.9378    8.9199   19.6241 O   0  0  0  0  0  0  0  0  0  0  0  0
  1  2  2  0
  1  6  1  0
  2  3  1  0
  3  4  2  0
  4  5  1  0
  4 10  1  0
  5  6  2  0
  5  8  1  0
  6  7  1  0
  8  9  2  0
  9 10  1  0
 11 10  1  6
 11 12  1  0
 11 17  1  0
 12 13  1  1
 12 14  1  0
 14 15  1  1
 14 16  1  0
 15 21  1  0
 16 17  1  0
 16 18  1  6
 18 19  1  0
 19 24  1  0
 21 20  2  0
 21 22  1  6
 21 23  1  0
 24 25  1  1
 24 26  2  0
 24 27  1  0
 27 28  1  0
 28 29  1  1
 28 30  2  0
 28 31  1  0
 31 32  1  0
 32 33  1  0
 33 34  1  1
 33 35  1  0
 33 36  1  0
 36 37  1  6
 36 38  1  0
 38 39  2  0
 38 40  1  0
 40 41  1  0
 41 42  1  0
 42 43  1  0
 43 44  2  0
 43 45  1  0
 45 46  1  0
 46 47  1  0
 47 48  1  0
 48 49  1  0
 49 50  2  0
 49 51  1  0
 51 52  1  0
 51 53  1  0
 53 54  1  0
 53 55  2  0
M  CHG  2  53   1  54  -1
M  END
$$$$
