
     RDKit          3D

 55 57  0  0  0  0  0  0  0  0999 V2000
   31.7468  -31.2850   26.4552 N   0  0  0  0  0  0  0  0  0  0  0  0
   30.7383  -32.1726   26.4847 C   0  0  0  0  0  0  0  0  0  0  0  0
   30.0972  -32.4518   27.6330 N   0  0  0  0  0  0  0  0  0  0  0  0
   30.4355  -31.8589   28.7926 C   0  0  0  0  0  0  0  0  0  0  0  0
   31.4765  -30.9490   28.7374 C   0  0  0  0  0  0  0  0  0  0  0  0
   32.1472  -30.6483   27.5703 C   0  0  0  0  0  0  0  0  0  0  0  0
   33.2129  -29.7132   27.5284 N   0  0  0  0  0  0  0  0  0  0  0  0
   31.6121  -30.5056   30.0169 N   0  0  0  0  0  0  0  0  0  0  0  0
   30.7180  -31.1011   30.8014 C   0  0  0  0  0  0  0  0  0  0  0  0
   29.9781  -31.9441   30.0629 N   0  0  0  0  0  0  0  0  0  0  0  0
   28.9063  -32.7953   30.4580 C   0  0  1  0  0  0  0  0  0  0  0  0
   29.3980  -34.1172   31.0643 C   0  0  2  0  0  0  0  0  0  0  0  0
   29.9267  -34.9454   30.0978 O   0  0  0  0  0  0  0  0  0  0  0  0
   28.0397  -34.6259   31.5739 C   0  0  2  0  0  0  0  0  0  0  0  0
   27.3176  -34.9677   30.4498 O   0  0  0  0  0  0  0  0  0  0  0  0
   27.4673  -33.3164   32.0984 C   0  0  2  0  0  0  0  0  0  0  0  0
   28.1057  -32.2918   31.4432 O   0  0  0  0  0  0  0  0  0  0  0  0
   27.7156  -33.1813   33.5919 C   0  0  0  0  0  0  0  0  0  0  0  0
   29.0787  -33.3092   33.8051 O   0  0  0  0  0  0  0  0  0  0  0  0
   24.9236  -36.0113   30.4920 O   0  0  0  0  0  0  0  0  0  0  0  0
   26.3743  -36.3305   30.6129 P   0  0  1  0  0  5  0  0  0  0  0  0
   26.7835  -37.3904   29.3326 O   0  0  0  0  0  0  0  0  0  0  0  0
   26.7187  -37.1809   32.0440 O   0  0  0  0  0  0  0  0  0  0  0  0
   29.5319  -33.0706   35.3948 P   0  0  1  0  0  5  0  0  0  0  0  0
   29.3468  -34.4826   36.3327 O   0  0  0  0  0  0  0  0  0  0  0  0
   31.0322  -32.7688   35.3979 O   0  0  0  0  0  0  0  0  0  0  0  0
   28.7756  -31.7648   36.1289 O   0  0  0  0  0  0  0  0  0  0  0  0
   29.2912  -30.2826   35.5096 P   0  0  1  0  0  5  0  0  0  0  0  0
   28.6234  -30.1172   33.9467 O   0  0  0  0  0  0  0  0  0  0  0  0
   28.6489  -29.1932   36.3571 O   0  0  0  0  0  0  0  0  0  0  0  0
   30.9501  -30.1247   35.4376 O   0  0  0  0  0  0  0  0  0  0  0  0
   31.3113  -29.0755   34.6314 C   0  0  0  0  0  0  0  0  0  0  0  0
   32.8181  -28.8672   34.6071 C   0  0  2  0  0  0  0  0  0  0  0  0
   33.3320  -28.4901   35.9648 C   0  0  0  0  0  0  0  0  0  0  0  0
   33.0940  -27.7785   33.5926 C   0  0  0  0  0  0  0  0  0  0  0  0
   33.4753  -30.1912   34.1974 C   0  0  1  0  0  0  0  0  0  0  0  0
   32.8900  -30.5178   32.9466 O   0  0  0  0  0  0  0  0  0  0  0  0
   34.9315  -30.0587   34.0288 C   0  0  0  0  0  0  0  0  0  0  0  0
   35.6353  -30.0119   35.0998 O   0  0  0  0  0  0  0  0  0  0  0  0
   35.6247  -29.9759   32.8096 N   0  0  0  0  0  0  0  0  0  0  0  0
   37.0600  -29.9350   32.7527 C   0  0  0  0  0  0  0  0  0  0  0  0
   37.6428  -28.6377   33.2591 C   0  0  0  0  0  0  0  0  0  0  0  0
   38.2132  -27.8628   32.0979 C   0  0  0  0  0  0  0  0  0  0  0  0
   38.2158  -28.3733   30.9534 O   0  0  0  0  0  0  0  0  0  0  0  0
   38.7302  -26.5799   32.3323 N   0  0  0  0  0  0  0  0  0  0  0  0
   39.7355  -25.9279   31.4988 C   0  0  0  0  0  0  0  0  0  0  0  0
   39.0592  -25.3991   30.2722 C   0  0  0  0  0  0  0  0  0  0  0  0
   38.9376  -23.6283   30.2810 S   0  0  0  0  0  0  0  0  0  0  0  0
   37.7265  -22.9798   31.3868 C   0  0  0  0  0  0  0  0  0  0  0  0
   37.8868  -23.1423   32.6112 O   0  0  0  0  0  0  0  0  0  0  0  0
   36.5041  -22.2344   31.0242 C   0  0  0  0  0  0  0  0  0  0  0  0
   36.8552  -20.7281   30.9396 C   0  0  0  0  0  0  0  0  0  0  0  0
   36.0958  -22.6148   29.6579 N   0  0  0  0  0  4  0  0  0  0  0  0
   37.0535  -22.7323   28.6835 O   0  0  0  0  0  1  0  0  0  0  0  0
   34.9060  -22.8255   29.3921 O   0  0  0  0  0  0  0  0  0  0  0  0
  1  2  2  0
  1  6  1  0
  2  3  1  0
  3  4  2  0
  4  5  1  0
  4 10  1  0
  5  6  2  0
  5  8  1  0
  6  7  1  0
  8  9  2  0
  9 10  1  0
 11 10  1  1
 11 12  1  0
 11 17  1  0
 12 13  1  6
 12 14  1  0
 14 15  1  6
 14 16  1  0
 15 21  1  0
 16 17  1  0
 16 18  1  1
 18 19  1  0
 19 24  1  0
 21 20  2  0
 21 22  1  6
 21 23  1  0
 24 25  1  1
 24 26  2  0
 24 27  1  0
 27 28  1  0
 28 29  1  6
 28 30  2  0
 28 31  1  0
 31 32  1  0
 32 33  1  0
 33 34  1  1
 33 35  1  0
 33 36  1  0
 36 37  1  6
 36 38  1  0
 38 39  2  0
 38 40  1  0
 40 41  1  0
 41 42  1  0
 42 43  1  0
 43 44  2  0
 43 45  1  0
 45 46  1  0
 46 47  1  0
 47 48  1  0
 48 49  1  0
 49 50  2  0
 49 51  1  0
 51 52  1  0
 51 53  1  0
 53 54  1  0
 53 55  2  0
M  CHG  2  53   1  54  -1
M  END
$$$$
