
     RDKit          3D

 55 57  0  0  0  0  0  0  0  0999 V2000
   23.3207  -32.2730   31.9695 N   0  0  0  0  0  0  0  0  0  0  0  0
   23.8469  -31.6683   33.0480 C   0  0  0  0  0  0  0  0  0  0  0  0
   25.1568  -31.3708   33.1029 N   0  0  0  0  0  0  0  0  0  0  0  0
   25.9904  -31.6636   32.0879 C   0  0  0  0  0  0  0  0  0  0  0  0
   25.4260  -32.2858   30.9884 C   0  0  0  0  0  0  0  0  0  0  0  0
   24.0850  -32.5997   30.9120 C   0  0  0  0  0  0  0  0  0  0  0  0
   23.5198  -33.2378   29.7783 N   0  0  0  0  0  0  0  0  0  0  0  0
   26.4637  -32.4658   30.1265 N   0  0  0  0  0  0  0  0  0  0  0  0
   27.5850  -31.9880   30.6592 C   0  0  0  0  0  0  0  0  0  0  0  0
   27.3145  -31.4860   31.8750 N   0  0  0  0  0  0  0  0  0  0  0  0
   28.1877  -30.8713   32.8179 C   0  0  1  0  0  0  0  0  0  0  0  0
   29.2688  -31.8324   33.3318 C   0  0  2  0  0  0  0  0  0  0  0  0
   28.7358  -32.7767   34.1827 O   0  0  0  0  0  0  0  0  0  0  0  0
   30.1203  -30.7978   34.0856 C   0  0  2  0  0  0  0  0  0  0  0  0
   29.3804  -30.4311   35.1900 O   0  0  0  0  0  0  0  0  0  0  0  0
   30.0484  -29.6478   33.0906 C   0  0  2  0  0  0  0  0  0  0  0  0
   28.9207  -29.8284   32.3275 O   0  0  0  0  0  0  0  0  0  0  0  0
   31.2672  -29.6461   32.1823 C   0  0  0  0  0  0  0  0  0  0  0  0
   31.6784  -30.9601   32.0273 O   0  0  0  0  0  0  0  0  0  0  0  0
   29.8375  -30.2507   37.7553 O   0  0  0  0  0  0  0  0  0  0  0  0
   29.8098  -31.1977   36.6048 P   0  0  1  0  0  5  0  0  0  0  0  0
   28.6131  -32.3777   36.9292 O   0  0  0  0  0  0  0  0  0  0  0  0
   31.2715  -32.0522   36.4526 O   0  0  0  0  0  0  0  0  0  0  0  0
   33.0032  -31.1321   31.0250 P   0  0  1  0  0  5  0  0  0  0  0  0
   34.4631  -30.7579   31.8228 O   0  0  0  0  0  0  0  0  0  0  0  0
   33.1039  -32.6142   30.6574 O   0  0  0  0  0  0  0  0  0  0  0  0
   32.8790  -30.2845   29.5821 O   0  0  0  0  0  0  0  0  0  0  0  0
   33.7854  -28.8616   29.5839 P   0  0  1  0  0  5  0  0  0  0  0  0
   34.9995  -29.0230   28.3940 O   0  0  0  0  0  0  0  0  0  0  0  0
   32.8706  -27.7450   29.1002 O   0  0  0  0  0  0  0  0  0  0  0  0
   34.4796  -28.5088   31.0588 O   0  0  0  0  0  0  0  0  0  0  0  0
   34.5055  -27.1555   31.2809 C   0  0  0  0  0  0  0  0  0  0  0  0
   34.6602  -26.8226   32.7572 C   0  0  2  0  0  0  0  0  0  0  0  0
   35.2127  -27.9909   33.5182 C   0  0  0  0  0  0  0  0  0  0  0  0
   33.2883  -26.4344   33.2652 C   0  0  0  0  0  0  0  0  0  0  0  0
   35.6513  -25.6585   32.8817 C   0  0  1  0  0  0  0  0  0  0  0  0
   35.5692  -25.2527   34.2390 O   0  0  0  0  0  0  0  0  0  0  0  0
   37.0323  -26.0717   32.5843 C   0  0  0  0  0  0  0  0  0  0  0  0
   37.5832  -26.8830   33.4108 O   0  0  0  0  0  0  0  0  0  0  0  0
   37.8060  -25.6621   31.4856 N   0  0  0  0  0  0  0  0  0  0  0  0
   39.2243  -25.8865   31.4289 C   0  0  0  0  0  0  0  0  0  0  0  0
   39.8609  -25.3772   30.1583 C   0  0  0  0  0  0  0  0  0  0  0  0
   40.7242  -24.1832   30.4792 C   0  0  0  0  0  0  0  0  0  0  0  0
   40.8069  -23.7781   31.6623 O   0  0  0  0  0  0  0  0  0  0  0  0
   41.4177  -23.5524   29.4356 N   0  0  0  0  0  0  0  0  0  0  0  0
   42.3385  -22.4336   29.6113 C   0  0  0  0  0  0  0  0  0  0  0  0
   42.7642  -21.9568   28.2574 C   0  0  0  0  0  0  0  0  0  0  0  0
   43.8120  -23.1269   27.4305 S   0  0  0  0  0  0  0  0  0  0  0  0
   42.9789  -24.1820   26.2892 C   0  0  0  0  0  0  0  0  0  0  0  0
   41.7474  -24.0585   26.1500 O   0  0  0  0  0  0  0  0  0  0  0  0
   43.5877  -25.2281   25.4427 C   0  0  0  0  0  0  0  0  0  0  0  0
   42.8426  -26.5617   25.6992 C   0  0  0  0  0  0  0  0  0  0  0  0
   43.3333  -24.9082   24.0246 N   0  0  0  0  0  4  0  0  0  0  0  0
   42.7444  -25.8520   23.2227 O   0  0  0  0  0  1  0  0  0  0  0  0
   43.6460  -23.8040   23.5623 O   0  0  0  0  0  0  0  0  0  0  0  0
  1  2  2  0
  1  6  1  0
  2  3  1  0
  3  4  2  0
  4  5  1  0
  4 10  1  0
  5  6  2  0
  5  8  1  0
  6  7  1  0
  8  9  2  0
  9 10  1  0
 11 10  1  6
 11 12  1  0
 11 17  1  0
 12 13  1  1
 12 14  1  0
 14 15  1  1
 14 16  1  0
 15 21  1  0
 16 17  1  0
 16 18  1  6
 18 19  1  0
 19 24  1  0
 21 20  2  0
 21 22  1  1
 21 23  1  0
 24 25  1  1
 24 26  2  0
 24 27  1  0
 27 28  1  0
 28 29  1  6
 28 30  2  0
 28 31  1  0
 31 32  1  0
 32 33  1  0
 33 34  1  1
 33 35  1  0
 33 36  1  0
 36 37  1  1
 36 38  1  0
 38 39  2  0
 38 40  1  0
 40 41  1  0
 41 42  1  0
 42 43  1  0
 43 44  2  0
 43 45  1  0
 45 46  1  0
 46 47  1  0
 47 48  1  0
 48 49  1  0
 49 50  2  0
 49 51  1  0
 51 52  1  0
 51 53  1  0
 53 54  1  0
 53 55  2  0
M  CHG  2  53   1  54  -1
M  END
$$$$
