
     RDKit          3D

 55 57  0  0  0  0  0  0  0  0999 V2000
   19.3563   16.8197   21.1629 N   0  0  0  0  0  0  0  0  0  0  0  0
   18.5724   17.8202   21.5991 C   0  0  0  0  0  0  0  0  0  0  0  0
   18.8668   19.1014   21.3177 N   0  0  0  0  0  0  0  0  0  0  0  0
   19.9506   19.4339   20.5928 C   0  0  0  0  0  0  0  0  0  0  0  0
   20.7424   18.3871   20.1546 C   0  0  0  0  0  0  0  0  0  0  0  0
   20.4583   17.0662   20.4322 C   0  0  0  0  0  0  0  0  0  0  0  0
   21.2792   16.0029   19.9766 N   0  0  0  0  0  0  0  0  0  0  0  0
   21.7487   18.9858   19.4610 N   0  0  0  0  0  0  0  0  0  0  0  0
   21.5859   20.3059   19.4725 C   0  0  0  0  0  0  0  0  0  0  0  0
   20.4774   20.6056   20.1687 N   0  0  0  0  0  0  0  0  0  0  0  0
   19.8995   21.8765   20.4521 C   0  0  1  0  0  0  0  0  0  0  0  0
   20.7742   22.7250   21.3858 C   0  0  2  0  0  0  0  0  0  0  0  0
   20.7522   22.2361   22.6742 O   0  0  0  0  0  0  0  0  0  0  0  0
   19.9904   24.0416   21.2594 C   0  0  2  0  0  0  0  0  0  0  0  0
   18.8019   23.8403   21.9293 O   0  0  0  0  0  0  0  0  0  0  0  0
   19.6819   24.0024   19.7691 C   0  0  2  0  0  0  0  0  0  0  0  0
   19.7403   22.6904   19.3670 O   0  0  0  0  0  0  0  0  0  0  0  0
   20.7070   24.8073   18.9869 C   0  0  0  0  0  0  0  0  0  0  0  0
   20.4156   24.6640   17.6399 O   0  0  0  0  0  0  0  0  0  0  0  0
   19.1743   26.2460   22.8759 O   0  0  0  0  0  0  0  0  0  0  0  0
   18.4768   24.9528   23.1253 P   0  0  1  0  0  5  0  0  0  0  0  0
   16.7922   25.2549   23.0968 O   0  0  0  0  0  0  0  0  0  0  0  0
   18.8101   24.3423   24.6765 O   0  0  0  0  0  0  0  0  0  0  0  0
   20.6414   26.0621   16.7547 P   0  0  1  0  0  5  0  0  0  0  0  0
   19.2070   26.5730   15.9869 O   0  0  0  0  0  0  0  0  0  0  0  0
   20.9956   27.1735   17.7453 O   0  0  0  0  0  0  0  0  0  0  0  0
   21.9063   25.9743   15.6555 O   0  0  0  0  0  0  0  0  0  0  0  0
   21.7175   24.7175   14.5460 P   0  0  1  0  0  5  0  0  0  0  0  0
   20.2176   24.9440   13.7618 O   0  0  0  0  0  0  0  0  0  0  0  0
   22.7827   24.9002   13.4739 O   0  0  0  0  0  0  0  0  0  0  0  0
   21.7745   23.1992   15.2342 O   0  0  0  0  0  0  0  0  0  0  0  0
   23.0678   22.8239   15.4947 C   0  0  0  0  0  0  0  0  0  0  0  0
   23.1453   21.4369   16.1148 C   0  0  2  0  0  0  0  0  0  0  0  0
   21.9429   21.1597   16.9674 C   0  0  0  0  0  0  0  0  0  0  0  0
   24.4197   21.3915   16.9298 C   0  0  0  0  0  0  0  0  0  0  0  0
   23.1731   20.4077   14.9778 C   0  0  1  0  0  0  0  0  0  0  0  0
   23.8843   21.0434   13.9272 O   0  0  0  0  0  0  0  0  0  0  0  0
   23.8800   19.1753   15.3624 C   0  0  0  0  0  0  0  0  0  0  0  0
   23.2562   18.0700   15.1784 O   0  0  0  0  0  0  0  0  0  0  0  0
   25.1696   19.0923   15.9135 N   0  0  0  0  0  0  0  0  0  0  0  0
   25.8910   17.8509   15.9758 C   0  0  0  0  0  0  0  0  0  0  0  0
   27.2796   17.9935   16.5508 C   0  0  0  0  0  0  0  0  0  0  0  0
   27.9243   16.6328   16.6352 C   0  0  0  0  0  0  0  0  0  0  0  0
   27.2933   15.6786   17.1470 O   0  0  0  0  0  0  0  0  0  0  0  0
   29.2245   16.4705   16.1341 N   0  0  0  0  0  0  0  0  0  0  0  0
   29.9350   15.1969   16.0738 C   0  0  0  0  0  0  0  0  0  0  0  0
   31.1091   15.3555   15.1584 C   0  0  0  0  0  0  0  0  0  0  0  0
   32.6542   15.3053   16.0306 S   0  0  0  0  0  0  0  0  0  0  0  0
   32.8884   13.8714   17.0300 C   0  0  0  0  0  0  0  0  0  0  0  0
   31.8857   13.2911   17.4875 O   0  0  0  0  0  0  0  0  0  0  0  0
   34.1759   13.2484   17.3982 C   0  0  0  0  0  0  0  0  0  0  0  0
   35.3206   14.2049   16.9806 C   0  0  0  0  0  0  0  0  0  0  0  0
   34.2636   13.1574   18.8686 N   0  0  0  0  0  4  0  0  0  0  0  0
   35.4922   12.9933   19.4551 O   0  0  0  0  0  1  0  0  0  0  0  0
   33.2438   13.2277   19.5656 O   0  0  0  0  0  0  0  0  0  0  0  0
  1  2  2  0
  1  6  1  0
  2  3  1  0
  3  4  2  0
  4  5  1  0
  4 10  1  0
  5  6  2  0
  5  8  1  0
  6  7  1  0
  8  9  2  0
  9 10  1  0
 11 10  1  6
 11 12  1  0
 11 17  1  0
 12 13  1  1
 12 14  1  0
 14 15  1  1
 14 16  1  0
 15 21  1  0
 16 17  1  0
 16 18  1  6
 18 19  1  0
 19 24  1  0
 21 20  2  0
 21 22  1  1
 21 23  1  0
 24 25  1  6
 24 26  2  0
 24 27  1  0
 27 28  1  0
 28 29  1  6
 28 30  2  0
 28 31  1  0
 31 32  1  0
 32 33  1  0
 33 34  1  1
 33 35  1  0
 33 36  1  0
 36 37  1  6
 36 38  1  0
 38 39  2  0
 38 40  1  0
 40 41  1  0
 41 42  1  0
 42 43  1  0
 43 44  2  0
 43 45  1  0
 45 46  1  0
 46 47  1  0
 47 48  1  0
 48 49  1  0
 49 50  2  0
 49 51  1  0
 51 52  1  0
 51 53  1  0
 53 54  1  0
 53 55  2  0
M  CHG  2  53   1  54  -1
M  END
$$$$
