
     RDKit          3D

 55 57  0  0  0  0  0  0  0  0999 V2000
   22.3748  -30.9472   33.1290 N   0  0  0  0  0  0  0  0  0  0  0  0
   23.2708  -31.9439   33.0309 C   0  0  0  0  0  0  0  0  0  0  0  0
   24.5897  -31.6982   33.1185 N   0  0  0  0  0  0  0  0  0  0  0  0
   25.0650  -30.4535   33.3066 C   0  0  0  0  0  0  0  0  0  0  0  0
   24.1238  -29.4439   33.4046 C   0  0  0  0  0  0  0  0  0  0  0  0
   22.7667  -29.6744   33.3176 C   0  0  0  0  0  0  0  0  0  0  0  0
   21.8128  -28.6295   33.4197 N   0  0  0  0  0  0  0  0  0  0  0  0
   24.8548  -28.3107   33.5882 N   0  0  0  0  0  0  0  0  0  0  0  0
   26.1521  -28.6040   33.6019 C   0  0  0  0  0  0  0  0  0  0  0  0
   26.3052  -29.9269   33.4290 N   0  0  0  0  0  0  0  0  0  0  0  0
   27.4986  -30.7029   33.3732 C   0  0  1  0  0  0  0  0  0  0  0  0
   28.0310  -30.8606   31.9420 C   0  0  2  0  0  0  0  0  0  0  0  0
   27.2383  -31.7129   31.2039 O   0  0  0  0  0  0  0  0  0  0  0  0
   29.3837  -31.4996   32.2966 C   0  0  2  0  0  0  0  0  0  0  0  0
   29.0960  -32.7739   32.7386 O   0  0  0  0  0  0  0  0  0  0  0  0
   29.7369  -30.6653   33.5201 C   0  0  2  0  0  0  0  0  0  0  0  0
   28.5657  -30.1642   34.0337 O   0  0  0  0  0  0  0  0  0  0  0  0
   30.6461  -29.5088   33.1376 C   0  0  0  0  0  0  0  0  0  0  0  0
   30.7629  -28.6819   34.2432 O   0  0  0  0  0  0  0  0  0  0  0  0
   29.7247  -34.1082   30.5831 O   0  0  0  0  0  0  0  0  0  0  0  0
   30.0095  -33.9786   32.0402 P   0  0  1  0  0  5  0  0  0  0  0  0
   31.6541  -33.5369   32.2130 O   0  0  0  0  0  0  0  0  0  0  0  0
   29.8422  -35.4625   32.8527 O   0  0  0  0  0  0  0  0  0  0  0  0
   32.3391  -28.4621   34.7499 P   0  0  1  0  0  5  0  0  0  0  0  0
   32.8913  -26.8758   34.4559 O   0  0  0  0  0  0  0  0  0  0  0  0
   32.3531  -28.6268   36.2713 O   0  0  0  0  0  0  0  0  0  0  0  0
   33.4158  -29.5915   34.1324 O   0  0  0  0  0  0  0  0  0  0  0  0
   33.8585  -29.2636   32.5379 P   0  0  1  0  0  5  0  0  0  0  0  0
   33.5875  -30.6818   31.6262 O   0  0  0  0  0  0  0  0  0  0  0  0
   32.8789  -28.2281   32.0031 O   0  0  0  0  0  0  0  0  0  0  0  0
   35.4437  -28.7736   32.3677 O   0  0  0  0  0  0  0  0  0  0  0  0
   36.2341  -29.3090   33.3525 C   0  0  0  0  0  0  0  0  0  0  0  0
   37.6884  -28.8864   33.2095 C   0  0  2  0  0  0  0  0  0  0  0  0
   38.4412  -29.8360   32.3256 C   0  0  0  0  0  0  0  0  0  0  0  0
   38.2743  -28.8517   34.6046 C   0  0  0  0  0  0  0  0  0  0  0  0
   37.7192  -27.4986   32.5567 C   0  0  1  0  0  0  0  0  0  0  0  0
   37.1487  -26.6285   33.5217 O   0  0  0  0  0  0  0  0  0  0  0  0
   39.0911  -27.0560   32.2593 C   0  0  0  0  0  0  0  0  0  0  0  0
   39.9733  -27.9737   32.1036 O   0  0  0  0  0  0  0  0  0  0  0  0
   39.5283  -25.7270   32.1321 N   0  0  0  0  0  0  0  0  0  0  0  0
   40.8949  -25.4022   31.8285 C   0  0  0  0  0  0  0  0  0  0  0  0
   41.1819  -25.3442   30.3475 C   0  0  0  0  0  0  0  0  0  0  0  0
   40.9749  -23.9336   29.8563 C   0  0  0  0  0  0  0  0  0  0  0  0
   41.3018  -22.9688   30.5864 O   0  0  0  0  0  0  0  0  0  0  0  0
   40.4171  -23.7376   28.5842 N   0  0  0  0  0  0  0  0  0  0  0  0
   40.7089  -22.5985   27.7193 C   0  0  0  0  0  0  0  0  0  0  0  0
   41.6180  -21.6665   28.4586 C   0  0  0  0  0  0  0  0  0  0  0  0
   42.9046  -21.0179   27.4219 S   0  0  0  0  0  0  0  0  0  0  0  0
   42.3549  -20.4111   25.8601 C   0  0  0  0  0  0  0  0  0  0  0  0
   41.3097  -20.8796   25.3708 O   0  0  0  0  0  0  0  0  0  0  0  0
   43.0036  -19.3721   25.0349 C   0  0  0  0  0  0  0  0  0  0  0  0
   44.4356  -19.8475   24.6842 C   0  0  0  0  0  0  0  0  0  0  0  0
   42.2994  -19.2754   23.7414 N   0  0  0  0  0  4  0  0  0  0  0  0
   42.2440  -20.3778   22.9277 O   0  0  0  0  0  1  0  0  0  0  0  0
   41.7653  -18.2152   23.3931 O   0  0  0  0  0  0  0  0  0  0  0  0
  1  2  2  0
  1  6  1  0
  2  3  1  0
  3  4  2  0
  4  5  1  0
  4 10  1  0
  5  6  2  0
  5  8  1  0
  6  7  1  0
  8  9  2  0
  9 10  1  0
 11 10  1  6
 11 12  1  0
 11 17  1  0
 12 13  1  6
 12 14  1  0
 14 15  1  1
 14 16  1  0
 15 21  1  0
 16 17  1  0
 16 18  1  6
 18 19  1  0
 19 24  1  0
 21 20  2  0
 21 22  1  6
 21 23  1  0
 24 25  1  1
 24 26  2  0
 24 27  1  0
 27 28  1  0
 28 29  1  6
 28 30  2  0
 28 31  1  0
 31 32  1  0
 32 33  1  0
 33 34  1  6
 33 35  1  0
 33 36  1  0
 36 37  1  1
 36 38  1  0
 38 39  2  0
 38 40  1  0
 40 41  1  0
 41 42  1  0
 42 43  1  0
 43 44  2  0
 43 45  1  0
 45 46  1  0
 46 47  1  0
 47 48  1  0
 48 49  1  0
 49 50  2  0
 49 51  1  0
 51 52  1  0
 51 53  1  0
 53 54  1  0
 53 55  2  0
M  CHG  2  53   1  54  -1
M  END
$$$$
