
     RDKit          3D

 55 57  0  0  0  0  0  0  0  0999 V2000
   33.6751  -29.2397   27.2947 N   0  0  0  0  0  0  0  0  0  0  0  0
   32.8927  -30.2822   26.9680 C   0  0  0  0  0  0  0  0  0  0  0  0
   32.0842  -30.8513   27.8790 N   0  0  0  0  0  0  0  0  0  0  0  0
   32.0245  -30.4047   29.1469 C   0  0  0  0  0  0  0  0  0  0  0  0
   32.8390  -29.3307   29.4598 C   0  0  0  0  0  0  0  0  0  0  0  0
   33.6754  -28.7325   28.5404 C   0  0  0  0  0  0  0  0  0  0  0  0
   34.5053  -27.6318   28.8751 N   0  0  0  0  0  0  0  0  0  0  0  0
   32.5907  -29.0840   30.7749 N   0  0  0  0  0  0  0  0  0  0  0  0
   31.6882  -29.9453   31.2363 C   0  0  0  0  0  0  0  0  0  0  0  0
   31.3235  -30.7732   30.2438 N   0  0  0  0  0  0  0  0  0  0  0  0
   30.3917  -31.8507   30.2568 C   0  0  1  0  0  0  0  0  0  0  0  0
   30.9259  -33.0810   31.0035 C   0  0  2  0  0  0  0  0  0  0  0  0
   31.9121  -33.7166   30.2802 O   0  0  0  0  0  0  0  0  0  0  0  0
   29.6191  -33.8906   31.0243 C   0  0  2  0  0  0  0  0  0  0  0  0
   29.4050  -34.2973   29.7241 O   0  0  0  0  0  0  0  0  0  0  0  0
   28.6364  -32.7644   31.3137 C   0  0  2  0  0  0  0  0  0  0  0  0
   29.2197  -31.5892   30.9075 O   0  0  0  0  0  0  0  0  0  0  0  0
   28.3371  -32.6815   32.8017 C   0  0  0  0  0  0  0  0  0  0  0  0
   29.3173  -33.3984   33.4687 O   0  0  0  0  0  0  0  0  0  0  0  0
   27.2214  -35.7113   29.9585 O   0  0  0  0  0  0  0  0  0  0  0  0
   28.6584  -35.7780   29.5691 P   0  0  1  0  0  5  0  0  0  0  0  0
   28.7310  -36.2152   27.9158 O   0  0  0  0  0  0  0  0  0  0  0  0
   29.4857  -37.0038   30.4075 O   0  0  0  0  0  0  0  0  0  0  0  0
   29.1506  -33.3724   35.1303 P   0  0  1  0  0  5  0  0  0  0  0  0
   29.2522  -34.9334   35.8090 O   0  0  0  0  0  0  0  0  0  0  0  0
   30.3460  -32.6006   35.6937 O   0  0  0  0  0  0  0  0  0  0  0  0
   27.7704  -32.5802   35.6629 O   0  0  0  0  0  0  0  0  0  0  0  0
   28.1092  -31.0824   36.3614 P   0  0  1  0  0  5  0  0  0  0  0  0
   26.6443  -30.2087   36.4421 O   0  0  0  0  0  0  0  0  0  0  0  0
   28.5224  -31.3418   37.8035 O   0  0  0  0  0  0  0  0  0  0  0  0
   29.2532  -30.1970   35.5311 O   0  0  0  0  0  0  0  0  0  0  0  0
   29.5138  -29.0092   36.1656 C   0  0  0  0  0  0  0  0  0  0  0  0
   30.4807  -28.1404   35.3752 C   0  0  2  0  0  0  0  0  0  0  0  0
   30.5416  -26.7518   35.9387 C   0  0  0  0  0  0  0  0  0  0  0  0
   29.9920  -28.1318   33.9428 C   0  0  0  0  0  0  0  0  0  0  0  0
   31.8784  -28.7628   35.4842 C   0  0  1  0  0  0  0  0  0  0  0  0
   31.7710  -30.0182   34.8314 O   0  0  0  0  0  0  0  0  0  0  0  0
   32.9013  -27.9515   34.8046 C   0  0  0  0  0  0  0  0  0  0  0  0
   33.0961  -28.1917   33.5600 O   0  0  0  0  0  0  0  0  0  0  0  0
   33.6861  -26.9422   35.3868 N   0  0  0  0  0  0  0  0  0  0  0  0
   34.3928  -25.9755   34.5922 C   0  0  0  0  0  0  0  0  0  0  0  0
   35.2993  -26.5979   33.5578 C   0  0  0  0  0  0  0  0  0  0  0  0
   36.5585  -25.7763   33.4420 C   0  0  0  0  0  0  0  0  0  0  0  0
   36.7667  -24.8434   34.2525 O   0  0  0  0  0  0  0  0  0  0  0  0
   37.4710  -26.0812   32.4211 N   0  0  0  0  0  0  0  0  0  0  0  0
   38.7538  -25.4113   32.2306 C   0  0  0  0  0  0  0  0  0  0  0  0
   38.4944  -24.0482   31.6682 C   0  0  0  0  0  0  0  0  0  0  0  0
   39.6024  -23.6455   30.3414 S   0  0  0  0  0  0  0  0  0  0  0  0
   40.0270  -25.0037   29.2998 C   0  0  0  0  0  0  0  0  0  0  0  0
   39.4765  -26.1034   29.4970 O   0  0  0  0  0  0  0  0  0  0  0  0
   40.9861  -24.9932   28.1766 C   0  0  0  0  0  0  0  0  0  0  0  0
   40.9237  -26.3680   27.4656 C   0  0  0  0  0  0  0  0  0  0  0  0
   40.5358  -24.0141   27.1682 N   0  0  0  0  0  4  0  0  0  0  0  0
   41.3060  -23.8019   26.0537 O   0  0  0  0  0  1  0  0  0  0  0  0
   39.4780  -23.3917   27.3235 O   0  0  0  0  0  0  0  0  0  0  0  0
  1  2  2  0
  1  6  1  0
  2  3  1  0
  3  4  2  0
  4  5  1  0
  4 10  1  0
  5  6  2  0
  5  8  1  0
  6  7  1  0
  8  9  2  0
  9 10  1  0
 11 10  1  1
 11 12  1  0
 11 17  1  0
 12 13  1  6
 12 14  1  0
 14 15  1  6
 14 16  1  0
 15 21  1  0
 16 17  1  0
 16 18  1  1
 18 19  1  0
 19 24  1  0
 21 20  2  0
 21 22  1  6
 21 23  1  0
 24 25  1  1
 24 26  2  0
 24 27  1  0
 27 28  1  0
 28 29  1  1
 28 30  2  0
 28 31  1  0
 31 32  1  0
 32 33  1  0
 33 34  1  1
 33 35  1  0
 33 36  1  0
 36 37  1  6
 36 38  1  0
 38 39  2  0
 38 40  1  0
 40 41  1  0
 41 42  1  0
 42 43  1  0
 43 44  2  0
 43 45  1  0
 45 46  1  0
 46 47  1  0
 47 48  1  0
 48 49  1  0
 49 50  2  0
 49 51  1  0
 51 52  1  0
 51 53  1  0
 53 54  1  0
 53 55  2  0
M  CHG  2  53   1  54  -1
M  END
$$$$
