
     RDKit          3D

 14 13  0  0  0  0  0  0  0  0999 V2000
   21.7045   40.1629   34.9720 C   0  0  0  0  0  0  0  0  0  0  0  0
   20.4121   39.7684   34.1047 B   0  0  1  0  0  4  0  0  0  0  0  0
   30.3960   38.2399   37.4480 C   0  0  0  0  0  0  0  0  0  0  0  0
   28.9150   38.4497   37.1405 C   0  0  0  0  0  0  0  0  0  0  0  0
   28.7373   39.0031   35.7373 C   0  0  0  0  0  0  0  0  0  0  0  0
   26.3914   38.8128   35.8437 C   0  0  0  0  0  0  0  0  0  0  0  0
   25.3264   39.1986   34.8241 C   0  0  0  0  0  0  0  0  0  0  0  0
   24.0053   39.4562   35.4536 C   0  0  0  0  0  0  0  0  0  0  0  0
   22.9538   39.5623   34.3918 C   0  0  0  0  0  0  0  0  0  0  0  0
   31.0688   39.4841   37.6710 N   0  0  0  0  0  4  0  0  0  0  0  0
   27.5003   39.7440   35.7080 N   0  0  0  0  0  4  0  0  0  0  0  0
   20.2087   38.3287   34.1029 O   0  0  0  0  0  3  0  0  0  0  0  0
   19.2637   40.4329   34.7639 O   0  0  0  0  0  3  0  0  0  0  0  0
   20.5157   40.2842   32.7519 O   0  0  0  0  0  3  0  0  0  0  0  0
  1  2  1  0
  9  1  1  0
  2 12  1  6
  2 14  1  0
  4  3  1  0
  3 10  1  0
  5  4  1  0
 11  5  1  0
  7  6  1  0
  6 11  1  0
  8  7  1  0
  8  9  1  0
  2 13  1  0
M  CHG  6   2  -1  10   1  11   1  12   1  13   1  14   1
M  END
$$$$
