
     RDKit          3D

 14 13  0  0  0  0  0  0  0  0999 V2000
   21.9028   40.7341   34.2031 C   0  0  0  0  0  0  0  0  0  0  0  0
   20.4266   40.1958   33.8724 B   0  0  1  0  0  4  0  0  0  0  0  0
   30.8016   38.9487   37.5865 C   0  0  0  0  0  0  0  0  0  0  0  0
   29.3473   38.5088   37.4326 C   0  0  0  0  0  0  0  0  0  0  0  0
   28.5995   39.4594   36.5140 C   0  0  0  0  0  0  0  0  0  0  0  0
   26.5325   39.8093   35.4390 C   0  0  0  0  0  0  0  0  0  0  0  0
   25.0904   39.3209   35.3729 C   0  0  0  0  0  0  0  0  0  0  0  0
   24.2670   40.1110   34.4211 C   0  0  0  0  0  0  0  0  0  0  0  0
   22.8597   39.5971   34.4261 C   0  0  0  0  0  0  0  0  0  0  0  0
   31.3964   38.3970   38.7663 N   0  0  0  0  0  4  0  0  0  0  0  0
   27.2308   39.0119   36.4347 N   0  0  0  0  0  4  0  0  0  0  0  0
   20.4428   39.3163   32.7148 O   0  0  0  0  0  3  0  0  0  0  0  0
   19.9950   39.4363   35.0690 O   0  0  0  0  0  3  0  0  0  0  0  0
   19.5017   41.2977   33.6799 O   0  0  0  0  0  3  0  0  0  0  0  0
  1  2  1  0
  9  1  1  0
  2 12  1  6
  2 14  1  0
  4  3  1  0
  3 10  1  0
  5  4  1  0
 11  5  1  0
  7  6  1  0
  6 11  1  0
  8  7  1  0
  8  9  1  0
  2 13  1  0
M  CHG  6   2  -1  10   1  11   1  12   1  13   1  14   1
M  END
$$$$
