
     RDKit          3D

 14 13  0  0  0  0  0  0  0  0999 V2000
   28.4848   38.5423   34.8061 C   0  0  0  0  0  0  0  0  0  0  0  0
   29.8028   39.4039   34.4921 B   0  0  1  0  0  4  0  0  0  0  0  0
   19.2042   39.8168   35.5131 C   0  0  0  0  0  0  0  0  0  0  0  0
   20.1772   39.9952   34.3497 C   0  0  0  0  0  0  0  0  0  0  0  0
   21.3917   39.1015   34.5314 C   0  0  0  0  0  0  0  0  0  0  0  0
   23.6816   39.4146   34.0742 C   0  0  0  0  0  0  0  0  0  0  0  0
   24.9137   39.6342   34.9439 C   0  0  0  0  0  0  0  0  0  0  0  0
   26.1578   39.1379   34.3007 C   0  0  0  0  0  0  0  0  0  0  0  0
   27.3320   39.4289   35.1845 C   0  0  0  0  0  0  0  0  0  0  0  0
   18.1584   40.7942   35.4794 N   0  0  0  0  0  4  0  0  0  0  0  0
   22.5305   39.9496   34.7840 N   0  0  0  0  0  4  0  0  0  0  0  0
   29.4618   40.6457   33.8172 O   0  0  0  0  0  3  0  0  0  0  0  0
   30.4137   39.7037   35.8081 O   0  0  0  0  0  3  0  0  0  0  0  0
   30.7571   38.6319   33.7174 O   0  0  0  0  0  3  0  0  0  0  0  0
  1  2  1  0
  9  1  1  0
  2 12  1  6
  2 14  1  0
  4  3  1  0
  3 10  1  0
  5  4  1  0
 11  5  1  0
  7  6  1  0
  6 11  1  0
  8  7  1  0
  8  9  1  0
  2 13  1  0
M  CHG  6   2  -1  10   1  11   1  12   1  13   1  14   1
M  END
$$$$
