
     RDKit          3D

 14 13  0  0  0  0  0  0  0  0999 V2000
   21.9609   39.7193   33.4097 C   0  0  0  0  0  0  0  0  0  0  0  0
   20.4788   40.0089   33.9551 B   0  0  1  0  0  4  0  0  0  0  0  0
   30.2255   38.5386   37.9400 C   0  0  0  0  0  0  0  0  0  0  0  0
   28.8150   38.1767   37.4801 C   0  0  0  0  0  0  0  0  0  0  0  0
   28.4295   38.9918   36.2579 C   0  0  0  0  0  0  0  0  0  0  0  0
   26.7299   39.3211   34.6599 C   0  0  0  0  0  0  0  0  0  0  0  0
   25.3707   39.9213   34.9989 C   0  0  0  0  0  0  0  0  0  0  0  0
   24.3551   39.6553   33.9473 C   0  0  0  0  0  0  0  0  0  0  0  0
   22.9958   40.0294   34.4542 C   0  0  0  0  0  0  0  0  0  0  0  0
   30.6031   37.8030   39.1089 N   0  0  0  0  0  4  0  0  0  0  0  0
   27.1549   38.5077   35.7881 N   0  0  0  0  0  4  0  0  0  0  0  0
   19.4869   39.7490   32.9242 O   0  0  0  0  0  3  0  0  0  0  0  0
   20.2750   39.0767   35.0886 O   0  0  0  0  0  3  0  0  0  0  0  0
   20.3657   41.3648   34.4606 O   0  0  0  0  0  3  0  0  0  0  0  0
  1  2  1  0
  9  1  1  0
  2 12  1  6
  2 14  1  0
  4  3  1  0
  3 10  1  0
  5  4  1  0
 11  5  1  0
  7  6  1  0
  6 11  1  0
  8  7  1  0
  8  9  1  0
  2 13  1  0
M  CHG  6   2  -1  10   1  11   1  12   1  13   1  14   1
M  END
$$$$
