
     RDKit          3D

 14 13  0  0  0  0  0  0  0  0999 V2000
   21.8208   40.5291   34.6310 C   0  0  0  0  0  0  0  0  0  0  0  0
   20.4046   39.9716   34.1195 B   0  0  1  0  0  4  0  0  0  0  0  0
   30.9709   38.7764   35.7998 C   0  0  0  0  0  0  0  0  0  0  0  0
   29.5029   38.4240   35.5699 C   0  0  0  0  0  0  0  0  0  0  0  0
   28.6048   39.3186   36.4065 C   0  0  0  0  0  0  0  0  0  0  0  0
   26.5346   39.8506   35.4156 C   0  0  0  0  0  0  0  0  0  0  0  0
   25.1139   39.3413   35.2036 C   0  0  0  0  0  0  0  0  0  0  0  0
   24.2620   40.3212   34.4811 C   0  0  0  0  0  0  0  0  0  0  0  0
   22.9544   39.6836   34.1229 C   0  0  0  0  0  0  0  0  0  0  0  0
   31.5730   37.9150   36.7723 N   0  0  0  0  0  4  0  0  0  0  0  0
   27.2452   38.8733   36.2250 N   0  0  0  0  0  4  0  0  0  0  0  0
   20.3703   39.8973   32.6678 O   0  0  0  0  0  3  0  0  0  0  0  0
   20.2746   38.6109   34.6910 O   0  0  0  0  0  3  0  0  0  0  0  0
   19.3121   40.7805   34.6283 O   0  0  0  0  0  3  0  0  0  0  0  0
  1  2  1  0
  9  1  1  0
  2 12  1  6
  2 14  1  0
  4  3  1  0
  3 10  1  0
  5  4  1  0
 11  5  1  0
  7  6  1  0
  6 11  1  0
  8  7  1  0
  8  9  1  0
  2 13  1  0
M  CHG  6   2  -1  10   1  11   1  12   1  13   1  14   1
M  END
$$$$
