
     RDKit          3D

 14 13  0  0  0  0  0  0  0  0999 V2000
   21.6813   39.3142   34.1817 C   0  0  0  0  0  0  0  0  0  0  0  0
   20.4225   40.2741   33.9131 B   0  0  1  0  0  4  0  0  0  0  0  0
   30.9564   38.8540   37.1496 C   0  0  0  0  0  0  0  0  0  0  0  0
   29.7924   39.7262   36.6844 C   0  0  0  0  0  0  0  0  0  0  0  0
   28.5941   38.8650   36.3250 C   0  0  0  0  0  0  0  0  0  0  0  0
   26.3583   38.9408   35.5862 C   0  0  0  0  0  0  0  0  0  0  0  0
   25.2336   39.8889   35.1877 C   0  0  0  0  0  0  0  0  0  0  0  0
   24.1095   39.1854   34.5174 C   0  0  0  0  0  0  0  0  0  0  0  0
   22.9375   40.1107   34.3958 C   0  0  0  0  0  0  0  0  0  0  0  0
   32.0794   39.6457   37.5524 N   0  0  0  0  0  4  0  0  0  0  0  0
   27.5202   39.7439   35.9326 N   0  0  0  0  0  4  0  0  0  0  0  0
   20.2072   41.1731   35.0353 O   0  0  0  0  0  3  0  0  0  0  0  0
   20.7629   41.0596   32.7039 O   0  0  0  0  0  3  0  0  0  0  0  0
   19.2290   39.4995   33.6263 O   0  0  0  0  0  3  0  0  0  0  0  0
  1  2  1  0
  9  1  1  0
  2 12  1  1
  2 14  1  0
  4  3  1  0
  3 10  1  0
  5  4  1  0
 11  5  1  0
  7  6  1  0
  6 11  1  0
  8  7  1  0
  8  9  1  0
  2 13  1  0
M  CHG  6   2  -1  10   1  11   1  12   1  13   1  14   1
M  END
$$$$
