
     RDKit          3D

 14 13  0  0  0  0  0  0  0  0999 V2000
   22.0928   39.5084   33.6830 C   0  0  0  0  0  0  0  0  0  0  0  0
   20.5318   39.7051   34.0033 B   0  0  1  0  0  4  0  0  0  0  0  0
   31.0437   38.6811   37.0628 C   0  0  0  0  0  0  0  0  0  0  0  0
   29.5560   38.8584   37.3583 C   0  0  0  0  0  0  0  0  0  0  0  0
   28.7595   38.9021   36.0658 C   0  0  0  0  0  0  0  0  0  0  0  0
   26.6423   39.3986   35.1595 C   0  0  0  0  0  0  0  0  0  0  0  0
   25.2366   39.8643   35.5198 C   0  0  0  0  0  0  0  0  0  0  0  0
   24.3900   40.0933   34.3203 C   0  0  0  0  0  0  0  0  0  0  0  0
   22.9500   40.1669   34.7270 C   0  0  0  0  0  0  0  0  0  0  0  0
   31.4632   37.3274   37.2666 N   0  0  0  0  0  4  0  0  0  0  0  0
   27.4286   39.3587   36.3822 N   0  0  0  0  0  4  0  0  0  0  0  0
   20.3311   40.7739   34.9683 O   0  0  0  0  0  3  0  0  0  0  0  0
   19.8971   40.0710   32.7156 O   0  0  0  0  0  3  0  0  0  0  0  0
   19.9346   38.4649   34.4639 O   0  0  0  0  0  3  0  0  0  0  0  0
  1  2  1  0
  9  1  1  0
  2 12  1  1
  2 14  1  0
  4  3  1  0
  3 10  1  0
  5  4  1  0
 11  5  1  0
  7  6  1  0
  6 11  1  0
  8  7  1  0
  8  9  1  0
  2 13  1  0
M  CHG  6   2  -1  10   1  11   1  12   1  13   1  14   1
M  END
$$$$
