
     RDKit          3D

 14 13  0  0  0  0  0  0  0  0999 V2000
   21.6978   40.5860   34.8905 C   0  0  0  0  0  0  0  0  0  0  0  0
   20.4127   39.8916   34.2238 B   0  0  1  0  0  4  0  0  0  0  0  0
   30.2927   37.9820   37.7643 C   0  0  0  0  0  0  0  0  0  0  0  0
   29.3242   39.1220   37.4571 C   0  0  0  0  0  0  0  0  0  0  0  0
   28.2286   38.6492   36.5174 C   0  0  0  0  0  0  0  0  0  0  0  0
   25.9737   39.3180   36.3809 C   0  0  0  0  0  0  0  0  0  0  0  0
   25.2834   39.5657   35.0450 C   0  0  0  0  0  0  0  0  0  0  0  0
   24.1356   40.5018   35.1646 C   0  0  0  0  0  0  0  0  0  0  0  0
   22.9726   39.9750   34.3807 C   0  0  0  0  0  0  0  0  0  0  0  0
   31.2712   38.3697   38.7351 N   0  0  0  0  0  4  0  0  0  0  0  0
   27.3523   39.7660   36.2632 N   0  0  0  0  0  4  0  0  0  0  0  0
   19.1873   40.5407   34.6612 O   0  0  0  0  0  3  0  0  0  0  0  0
   20.5726   40.0637   32.7610 O   0  0  0  0  0  3  0  0  0  0  0  0
   20.3825   38.4689   34.5098 O   0  0  0  0  0  3  0  0  0  0  0  0
  1  2  1  0
  9  1  1  0
  2 12  1  1
  2 14  1  0
  4  3  1  0
  3 10  1  0
  5  4  1  0
 11  5  1  0
  7  6  1  0
  6 11  1  0
  8  7  1  0
  8  9  1  0
  2 13  1  0
M  CHG  6   2  -1  10   1  11   1  12   1  13   1  14   1
M  END
$$$$
