
     RDKit          3D

 14 13  0  0  0  0  0  0  0  0999 V2000
   21.7552   39.8229   35.2069 C   0  0  0  0  0  0  0  0  0  0  0  0
   20.4954   39.7851   34.2120 B   0  0  1  0  0  4  0  0  0  0  0  0
   30.4787   38.2894   37.5878 C   0  0  0  0  0  0  0  0  0  0  0  0
   29.1259   38.9809   37.4330 C   0  0  0  0  0  0  0  0  0  0  0  0
   28.6811   38.9583   35.9810 C   0  0  0  0  0  0  0  0  0  0  0  0
   26.6201   39.0062   34.8405 C   0  0  0  0  0  0  0  0  0  0  0  0
   25.4543   39.9334   34.5183 C   0  0  0  0  0  0  0  0  0  0  0  0
   24.1875   39.4959   35.1598 C   0  0  0  0  0  0  0  0  0  0  0  0
   23.0244   40.1371   34.4664 C   0  0  0  0  0  0  0  0  0  0  0  0
   30.9361   38.3252   38.9441 N   0  0  0  0  0  4  0  0  0  0  0  0
   27.4032   39.6219   35.9000 N   0  0  0  0  0  4  0  0  0  0  0  0
   19.3644   39.1146   34.8329 O   0  0  0  0  0  3  0  0  0  0  0  0
   20.1491   41.2003   33.9432 O   0  0  0  0  0  3  0  0  0  0  0  0
   20.8469   39.1594   32.9504 O   0  0  0  0  0  3  0  0  0  0  0  0
  1  2  1  0
  9  1  1  0
  2 12  1  1
  2 14  1  0
  4  3  1  0
  3 10  1  0
  5  4  1  0
 11  5  1  0
  7  6  1  0
  6 11  1  0
  8  7  1  0
  8  9  1  0
  2 13  1  0
M  CHG  6   2  -1  10   1  11   1  12   1  13   1  14   1
M  END
$$$$
