
     RDKit          3D

 14 13  0  0  0  0  0  0  0  0999 V2000
   22.0724   40.2600   33.6616 C   0  0  0  0  0  0  0  0  0  0  0  0
   20.4979   40.1693   33.9630 B   0  0  1  0  0  4  0  0  0  0  0  0
   31.1124   38.8681   36.9655 C   0  0  0  0  0  0  0  0  0  0  0  0
   29.6485   39.1887   37.2596 C   0  0  0  0  0  0  0  0  0  0  0  0
   28.7976   38.9685   36.0210 C   0  0  0  0  0  0  0  0  0  0  0  0
   26.5631   38.9225   35.2757 C   0  0  0  0  0  0  0  0  0  0  0  0
   25.1469   39.3610   35.6291 C   0  0  0  0  0  0  0  0  0  0  0  0
   24.3037   39.5794   34.4252 C   0  0  0  0  0  0  0  0  0  0  0  0
   22.8801   39.7935   34.8398 C   0  0  0  0  0  0  0  0  0  0  0  0
   31.9288   39.0179   38.1322 N   0  0  0  0  0  4  0  0  0  0  0  0
   27.4519   39.3852   36.3297 N   0  0  0  0  0  4  0  0  0  0  0  0
   20.1447   40.9734   35.1217 O   0  0  0  0  0  3  0  0  0  0  0  0
   19.8234   40.7078   32.7588 O   0  0  0  0  0  3  0  0  0  0  0  0
   20.0794   38.7902   34.1354 O   0  0  0  0  0  3  0  0  0  0  0  0
  1  2  1  0
  9  1  1  0
  2 12  1  1
  2 14  1  0
  4  3  1  0
  3 10  1  0
  5  4  1  0
 11  5  1  0
  7  6  1  0
  6 11  1  0
  8  7  1  0
  8  9  1  0
  2 13  1  0
M  CHG  6   2  -1  10   1  11   1  12   1  13   1  14   1
M  END
$$$$
