
     RDKit          3D

 14 13  0  0  0  0  0  0  0  0999 V2000
   22.0608   40.6067   33.4808 C   0  0  0  0  0  0  0  0  0  0  0  0
   20.5177   40.2034   33.6666 B   0  0  1  0  0  4  0  0  0  0  0  0
   30.0566   38.5746   37.9090 C   0  0  0  0  0  0  0  0  0  0  0  0
   29.4449   39.3899   36.7718 C   0  0  0  0  0  0  0  0  0  0  0  0
   28.1094   38.7994   36.3538 C   0  0  0  0  0  0  0  0  0  0  0  0
   26.4014   38.9482   34.7380 C   0  0  0  0  0  0  0  0  0  0  0  0
   25.2028   39.6736   35.3377 C   0  0  0  0  0  0  0  0  0  0  0  0
   24.3560   40.3218   34.3029 C   0  0  0  0  0  0  0  0  0  0  0  0
   22.9146   40.0054   34.5614 C   0  0  0  0  0  0  0  0  0  0  0  0
   31.1226   37.7396   37.4437 N   0  0  0  0  0  4  0  0  0  0  0  0
   27.6085   39.5786   35.2485 N   0  0  0  0  0  4  0  0  0  0  0  0
   19.6695   40.9711   32.7693 O   0  0  0  0  0  3  0  0  0  0  0  0
   20.4311   38.7645   33.3244 O   0  0  0  0  0  3  0  0  0  0  0  0
   20.1001   40.3644   35.0474 O   0  0  0  0  0  3  0  0  0  0  0  0
  1  2  1  0
  9  1  1  0
  2 12  1  6
  2 14  1  0
  4  3  1  0
  3 10  1  0
  5  4  1  0
 11  5  1  0
  7  6  1  0
  6 11  1  0
  8  7  1  0
  8  9  1  0
  2 13  1  0
M  CHG  6   2  -1  10   1  11   1  12   1  13   1  14   1
M  END
$$$$
