
     RDKit          3D

 14 13  0  0  0  0  0  0  0  0999 V2000
   21.7877   40.6837   34.5766 C   0  0  0  0  0  0  0  0  0  0  0  0
   20.3961   40.0960   34.0324 B   0  0  1  0  0  4  0  0  0  0  0  0
   30.8668   38.5680   37.1292 C   0  0  0  0  0  0  0  0  0  0  0  0
   29.4962   38.0345   36.7183 C   0  0  0  0  0  0  0  0  0  0  0  0
   28.5907   39.1745   36.2855 C   0  0  0  0  0  0  0  0  0  0  0  0
   26.5998   39.6770   35.1303 C   0  0  0  0  0  0  0  0  0  0  0  0
   25.1830   39.1351   34.9830 C   0  0  0  0  0  0  0  0  0  0  0  0
   24.1594   40.2122   34.9985 C   0  0  0  0  0  0  0  0  0  0  0  0
   22.9246   39.7433   34.2914 C   0  0  0  0  0  0  0  0  0  0  0  0
   31.2774   38.0439   38.3969 N   0  0  0  0  0  4  0  0  0  0  0  0
   27.4418   38.6011   35.6289 N   0  0  0  0  0  4  0  0  0  0  0  0
   19.2724   40.8556   34.5561 O   0  0  0  0  0  3  0  0  0  0  0  0
   20.4469   40.2344   32.5582 O   0  0  0  0  0  3  0  0  0  0  0  0
   20.2674   38.6853   34.3488 O   0  0  0  0  0  3  0  0  0  0  0  0
  1  2  1  0
  9  1  1  0
  2 12  1  1
  2 14  1  0
  4  3  1  0
  3 10  1  0
  5  4  1  0
 11  5  1  0
  7  6  1  0
  6 11  1  0
  8  7  1  0
  8  9  1  0
  2 13  1  0
M  CHG  6   2  -1  10   1  11   1  12   1  13   1  14   1
M  END
$$$$
