
     RDKit          3D

 14 13  0  0  0  0  0  0  0  0999 V2000
   22.2244   40.1457   33.8753 C   0  0  0  0  0  0  0  0  0  0  0  0
   20.6214   40.0703   33.9289 B   0  0  1  0  0  4  0  0  0  0  0  0
   30.9703   38.8602   36.6672 C   0  0  0  0  0  0  0  0  0  0  0  0
   29.5133   38.9661   37.1122 C   0  0  0  0  0  0  0  0  0  0  0  0
   28.6590   39.5470   35.9989 C   0  0  0  0  0  0  0  0  0  0  0  0
   26.4701   38.8019   35.5470 C   0  0  0  0  0  0  0  0  0  0  0  0
   25.2016   39.5981   35.2651 C   0  0  0  0  0  0  0  0  0  0  0  0
   24.2559   38.8652   34.3840 C   0  0  0  0  0  0  0  0  0  0  0  0
   22.8479   39.1483   34.8106 C   0  0  0  0  0  0  0  0  0  0  0  0
   31.6531   37.8015   37.3478 N   0  0  0  0  0  4  0  0  0  0  0  0
   27.2931   39.5783   36.4607 N   0  0  0  0  0  4  0  0  0  0  0  0
   20.0260   41.0708   33.0579 O   0  0  0  0  0  3  0  0  0  0  0  0
   20.2634   38.7153   33.4486 O   0  0  0  0  0  3  0  0  0  0  0  0
   20.1390   40.2080   35.2909 O   0  0  0  0  0  3  0  0  0  0  0  0
  1  2  1  0
  9  1  1  0
  2 12  1  6
  2 14  1  0
  4  3  1  0
  3 10  1  0
  5  4  1  0
 11  5  1  0
  7  6  1  0
  6 11  1  0
  8  7  1  0
  8  9  1  0
  2 13  1  0
M  CHG  6   2  -1  10   1  11   1  12   1  13   1  14   1
M  END
$$$$
