
     RDKit          3D

 14 13  0  0  0  0  0  0  0  0999 V2000
   21.4620   40.0945   34.9681 C   0  0  0  0  0  0  0  0  0  0  0  0
   20.2974   39.9095   33.8783 B   0  0  1  0  0  4  0  0  0  0  0  0
   29.6880   37.7266   37.5694 C   0  0  0  0  0  0  0  0  0  0  0  0
   29.1564   38.9469   36.8209 C   0  0  0  0  0  0  0  0  0  0  0  0
   28.0107   38.5510   35.9058 C   0  0  0  0  0  0  0  0  0  0  0  0
   26.3346   40.2029   35.7931 C   0  0  0  0  0  0  0  0  0  0  0  0
   25.2205   39.9871   34.7758 C   0  0  0  0  0  0  0  0  0  0  0  0
   23.8742   39.9681   35.4044 C   0  0  0  0  0  0  0  0  0  0  0  0
   22.8211   39.9706   34.3389 C   0  0  0  0  0  0  0  0  0  0  0  0
   30.6715   38.0935   38.5432 N   0  0  0  0  0  4  0  0  0  0  0  0
   27.5780   39.7335   35.2027 N   0  0  0  0  0  4  0  0  0  0  0  0
   20.4536   40.8570   32.7866 O   0  0  0  0  0  3  0  0  0  0  0  0
   20.4406   38.5279   33.3630 O   0  0  0  0  0  3  0  0  0  0  0  0
   18.9871   40.0285   34.4913 O   0  0  0  0  0  3  0  0  0  0  0  0
  1  2  1  0
  9  1  1  0
  2 12  1  6
  2 14  1  0
  4  3  1  0
  3 10  1  0
  5  4  1  0
 11  5  1  0
  7  6  1  0
  6 11  1  0
  8  7  1  0
  8  9  1  0
  2 13  1  0
M  CHG  6   2  -1  10   1  11   1  12   1  13   1  14   1
M  END
$$$$
