
     RDKit          3D

 14 13  0  0  0  0  0  0  0  0999 V2000
   22.0265   39.5454   33.6113 C   0  0  0  0  0  0  0  0  0  0  0  0
   20.5623   40.0993   33.9686 B   0  0  1  0  0  4  0  0  0  0  0  0
   30.7737   39.9682   36.2911 C   0  0  0  0  0  0  0  0  0  0  0  0
   29.6955   39.0594   35.7048 C   0  0  0  0  0  0  0  0  0  0  0  0
   28.3416   39.7464   35.7466 C   0  0  0  0  0  0  0  0  0  0  0  0
   26.2475   38.6905   35.9711 C   0  0  0  0  0  0  0  0  0  0  0  0
   25.1973   39.7367   35.6171 C   0  0  0  0  0  0  0  0  0  0  0  0
   24.2846   39.2811   34.5367 C   0  0  0  0  0  0  0  0  0  0  0  0
   23.0726   40.1610   34.4972 C   0  0  0  0  0  0  0  0  0  0  0  0
   31.9681   39.2395   36.5953 N   0  0  0  0  0  4  0  0  0  0  0  0
   27.3887   38.8850   35.0909 N   0  0  0  0  0  4  0  0  0  0  0  0
   19.5691   39.5708   33.0476 O   0  0  0  0  0  3  0  0  0  0  0  0
   20.2727   39.6223   35.3410 O   0  0  0  0  0  3  0  0  0  0  0  0
   20.5438   41.5506   33.9824 O   0  0  0  0  0  3  0  0  0  0  0  0
  1  2  1  0
  9  1  1  0
  2 12  1  6
  2 14  1  0
  4  3  1  0
  3 10  1  0
  5  4  1  0
 11  5  1  0
  7  6  1  0
  6 11  1  0
  8  7  1  0
  8  9  1  0
  2 13  1  0
M  CHG  6   2  -1  10   1  11   1  12   1  13   1  14   1
M  END
$$$$
