
     RDKit          3D

 14 13  0  0  0  0  0  0  0  0999 V2000
   13.3641   36.8471   37.7844 C   0  0  0  0  0  0  0  0  0  0  0  0
   13.8967   36.3830   36.3425 B   0  0  1  0  0  4  0  0  0  0  0  0
    7.8789   32.2656   43.5057 C   0  0  0  0  0  0  0  0  0  0  0  0
    8.4176   33.6730   43.7530 C   0  0  0  0  0  0  0  0  0  0  0  0
    8.8468   34.3147   42.4450 C   0  0  0  0  0  0  0  0  0  0  0  0
   10.6929   35.6043   41.7527 C   0  0  0  0  0  0  0  0  0  0  0  0
   11.1904   35.2147   40.3659 C   0  0  0  0  0  0  0  0  0  0  0  0
   11.8966   36.3294   39.6827 C   0  0  0  0  0  0  0  0  0  0  0  0
   12.3448   35.8840   38.3243 C   0  0  0  0  0  0  0  0  0  0  0  0
    7.4621   31.6398   44.7242 N   0  0  0  0  0  4  0  0  0  0  0  0
   10.2870   34.3893   42.4412 N   0  0  0  0  0  4  0  0  0  0  0  0
   14.5246   35.0738   36.4186 O   0  0  0  0  0  3  0  0  0  0  0  0
   12.6997   36.3114   35.4725 O   0  0  0  0  0  3  0  0  0  0  0  0
   14.8041   37.3670   35.7811 O   0  0  0  0  0  3  0  0  0  0  0  0
  1  2  1  0
  9  1  1  0
  2 12  1  1
  2 14  1  0
  4  3  1  0
  3 10  1  0
  5  4  1  0
 11  5  1  0
  7  6  1  0
  6 11  1  0
  8  7  1  0
  8  9  1  0
  2 13  1  0
M  CHG  6   2  -1  10   1  11   1  12   1  13   1  14   1
M  END
$$$$
