
     RDKit          3D

 14 13  0  0  0  0  0  0  0  0999 V2000
   21.9066   39.2243   34.3864 C   0  0  0  0  0  0  0  0  0  0  0  0
   20.5486   40.0769   34.4701 B   0  0  1  0  0  4  0  0  0  0  0  0
   30.7013   38.2047   37.6504 C   0  0  0  0  0  0  0  0  0  0  0  0
   29.4034   38.9509   37.3493 C   0  0  0  0  0  0  0  0  0  0  0  0
   28.7961   38.4563   36.0481 C   0  0  0  0  0  0  0  0  0  0  0  0
   26.6086   38.6523   35.1956 C   0  0  0  0  0  0  0  0  0  0  0  0
   25.3792   39.5256   35.4167 C   0  0  0  0  0  0  0  0  0  0  0  0
   24.3579   39.3473   34.3522 C   0  0  0  0  0  0  0  0  0  0  0  0
   23.1009   40.0670   34.7350 C   0  0  0  0  0  0  0  0  0  0  0  0
   30.7193   37.6990   38.9898 N   0  0  0  0  0  4  0  0  0  0  0  0
   27.7731   39.3932   35.6537 N   0  0  0  0  0  4  0  0  0  0  0  0
   20.5947   41.2154   33.5671 O   0  0  0  0  0  3  0  0  0  0  0  0
   19.4655   39.1552   34.0547 O   0  0  0  0  0  3  0  0  0  0  0  0
   20.2826   40.4999   35.8329 O   0  0  0  0  0  3  0  0  0  0  0  0
  1  2  1  0
  9  1  1  0
  2 12  1  6
  2 14  1  0
  4  3  1  0
  3 10  1  0
  5  4  1  0
 11  5  1  0
  7  6  1  0
  6 11  1  0
  8  7  1  0
  8  9  1  0
  2 13  1  0
M  CHG  6   2  -1  10   1  11   1  12   1  13   1  14   1
M  END
$$$$
