
     RDKit          3D

 14 13  0  0  0  0  0  0  0  0999 V2000
   22.1239   39.6280   33.4931 C   0  0  0  0  0  0  0  0  0  0  0  0
   20.5993   39.9126   33.9088 B   0  0  1  0  0  4  0  0  0  0  0  0
   31.2578   38.8786   36.4155 C   0  0  0  0  0  0  0  0  0  0  0  0
   29.9460   39.6591   36.3686 C   0  0  0  0  0  0  0  0  0  0  0  0
   28.7626   38.7075   36.3410 C   0  0  0  0  0  0  0  0  0  0  0  0
   26.6407   38.9761   35.3532 C   0  0  0  0  0  0  0  0  0  0  0  0
   25.3606   39.8011   35.4116 C   0  0  0  0  0  0  0  0  0  0  0  0
   24.4479   39.5133   34.2749 C   0  0  0  0  0  0  0  0  0  0  0  0
   23.0687   39.9991   34.6012 C   0  0  0  0  0  0  0  0  0  0  0  0
   32.3917   39.7504   36.3496 N   0  0  0  0  0  4  0  0  0  0  0  0
   27.5579   39.5002   36.3528 N   0  0  0  0  0  4  0  0  0  0  0  0
   20.3839   41.3300   34.1510 O   0  0  0  0  0  3  0  0  0  0  0  0
   19.7769   39.4735   32.7574 O   0  0  0  0  0  3  0  0  0  0  0  0
   20.2180   39.1202   35.0636 O   0  0  0  0  0  3  0  0  0  0  0  0
  1  2  1  0
  9  1  1  0
  2 12  1  1
  2 14  1  0
  4  3  1  0
  3 10  1  0
  5  4  1  0
 11  5  1  0
  7  6  1  0
  6 11  1  0
  8  7  1  0
  8  9  1  0
  2 13  1  0
M  CHG  6   2  -1  10   1  11   1  12   1  13   1  14   1
M  END
$$$$
