
     RDKit          3D

 17 18  0  0  0  0  0  0  0  0999 V2000
   14.4886   20.7862   76.1826 C   0  0  2  0  0  0  0  0  0  0  0  0
   14.7751   19.3896   76.7578 C   0  0  0  0  0  0  0  0  0  0  0  0
   15.9158   17.3667   76.5974 C   0  0  0  0  0  0  0  0  0  0  0  0
   13.4735   21.4022   77.1012 C   0  0  0  0  0  0  0  0  0  0  0  0
   13.1047   23.5423   76.0126 C   0  0  0  0  0  0  0  0  0  0  0  0
   12.2773   24.6945   76.4812 C   0  0  0  0  0  0  0  0  0  0  0  0
   13.0193   25.7354   76.9986 C   0  0  0  0  0  0  0  0  0  0  0  0
   12.4252   26.8807   77.4784 C   0  0  0  0  0  0  0  0  0  0  0  0
   11.0486   26.9302   77.4134 C   0  0  0  0  0  0  0  0  0  0  0  0
   10.2961   25.8899   76.8956 C   0  0  0  0  0  0  0  0  0  0  0  0
   10.9003   24.7587   76.4228 C   0  0  0  0  0  0  0  0  0  0  0  0
    9.9404   23.7282   75.8968 C   0  0  0  0  0  0  0  0  0  0  0  0
   10.1279   22.5105   76.8089 C   0  0  0  0  0  0  0  0  0  0  0  0
   11.4861   22.5555   77.4783 C   0  0  0  0  0  0  0  0  0  0  0  0
   15.8024   18.7110   76.0087 N   0  0  0  0  0  4  0  0  0  0  0  0
   12.5646   22.3202   76.5254 N   0  0  2  0  0  4  0  0  0  0  0  0
   13.9560   20.6947   74.9111 O   0  0  0  0  0  0  0  0  0  0  0  0
  1  2  1  0
  4  1  1  0
  1 17  1  6
  2 15  1  0
 15  3  1  0
 16  4  1  1
  5  6  1  0
  5 16  1  0
  6  7  2  0
  6 11  1  0
  7  8  1  0
  8  9  2  0
  9 10  1  0
 10 11  2  0
 11 12  1  0
 12 13  1  0
 13 14  1  0
 14 16  1  0
M  CHG  2  15   1  16   1
M  END
$$$$
