
     RDKit          3D

 17 18  0  0  0  0  0  0  0  0999 V2000
   15.1794   20.5261   75.6096 C   0  0  2  0  0  0  0  0  0  0  0  0
   14.8941   19.1458   76.2234 C   0  0  0  0  0  0  0  0  0  0  0  0
   15.7068   17.1343   77.0673 C   0  0  0  0  0  0  0  0  0  0  0  0
   13.8346   21.1494   75.3715 C   0  0  0  0  0  0  0  0  0  0  0  0
   13.1475   21.6144   77.6547 C   0  0  0  0  0  0  0  0  0  0  0  0
   11.8339   22.1305   78.1444 C   0  0  0  0  0  0  0  0  0  0  0  0
   11.0335   21.1604   78.7102 C   0  0  0  0  0  0  0  0  0  0  0  0
    9.7873   21.4534   79.2162 C   0  0  0  0  0  0  0  0  0  0  0  0
    9.3833   22.7688   79.1265 C   0  0  0  0  0  0  0  0  0  0  0  0
   10.1804   23.7489   78.5601 C   0  0  0  0  0  0  0  0  0  0  0  0
   11.4158   23.4428   78.0618 C   0  0  0  0  0  0  0  0  0  0  0  0
   12.1494   24.6202   77.4826 C   0  0  0  0  0  0  0  0  0  0  0  0
   12.3248   24.2857   75.9970 C   0  0  0  0  0  0  0  0  0  0  0  0
   12.2324   22.7896   75.7775 C   0  0  0  0  0  0  0  0  0  0  0  0
   16.1139   18.4477   76.5419 N   0  0  0  0  0  4  0  0  0  0  0  0
   13.3889   22.0918   76.3273 N   0  0  2  0  0  4  0  0  0  0  0  0
   15.8432   20.4008   74.4045 O   0  0  0  0  0  0  0  0  0  0  0  0
  1  2  1  0
  4  1  1  0
  1 17  1  6
  2 15  1  0
 15  3  1  0
 16  4  1  6
  5  6  1  0
  5 16  1  0
  6  7  2  0
  6 11  1  0
  7  8  1  0
  8  9  2  0
  9 10  1  0
 10 11  2  0
 11 12  1  0
 12 13  1  0
 13 14  1  0
 14 16  1  0
M  CHG  2  15   1  16   1
M  END
$$$$
