
     RDKit          3D

 17 18  0  0  0  0  0  0  0  0999 V2000
   15.0646   20.3682   76.2389 C   0  0  2  0  0  0  0  0  0  0  0  0
   15.0211   18.9899   76.9185 C   0  0  0  0  0  0  0  0  0  0  0  0
   15.4215   16.6995   76.8067 C   0  0  0  0  0  0  0  0  0  0  0  0
   14.3671   21.3065   77.1807 C   0  0  0  0  0  0  0  0  0  0  0  0
   13.2841   22.9511   75.7582 C   0  0  0  0  0  0  0  0  0  0  0  0
   12.4133   24.0974   76.1572 C   0  0  0  0  0  0  0  0  0  0  0  0
   13.0496   25.3199   76.1086 C   0  0  0  0  0  0  0  0  0  0  0  0
   12.4019   26.4879   76.4421 C   0  0  0  0  0  0  0  0  0  0  0  0
   11.0831   26.3687   76.8272 C   0  0  0  0  0  0  0  0  0  0  0  0
   10.4367   25.1455   76.8787 C   0  0  0  0  0  0  0  0  0  0  0  0
   11.0930   23.9941   76.5445 C   0  0  0  0  0  0  0  0  0  0  0  0
   10.2480   22.7557   76.6549 C   0  0  0  0  0  0  0  0  0  0  0  0
   10.9269   21.9084   77.7371 C   0  0  0  0  0  0  0  0  0  0  0  0
   12.3825   22.3026   77.8815 C   0  0  0  0  0  0  0  0  0  0  0  0
   15.5498   17.9610   76.0591 N   0  0  0  0  0  4  0  0  0  0  0  0
   13.1678   21.8987   76.7210 N   0  0  2  0  0  4  0  0  0  0  0  0
   14.3874   20.3446   75.0350 O   0  0  0  0  0  0  0  0  0  0  0  0
  1  2  1  0
  4  1  1  0
  1 17  1  6
  2 15  1  0
 15  3  1  0
 16  4  1  1
  5  6  1  0
  5 16  1  0
  6  7  2  0
  6 11  1  0
  7  8  1  0
  8  9  2  0
  9 10  1  0
 10 11  2  0
 11 12  1  0
 12 13  1  0
 13 14  1  0
 14 16  1  0
M  CHG  2  15   1  16   1
M  END
$$$$
