
     RDKit          3D

 17 18  0  0  0  0  0  0  0  0999 V2000
   14.1019   19.4615   76.9573 C   0  0  2  0  0  0  0  0  0  0  0  0
   15.5868   19.3774   76.5680 C   0  0  0  0  0  0  0  0  0  0  0  0
   17.2901   18.2562   75.4454 C   0  0  0  0  0  0  0  0  0  0  0  0
   13.8809   20.8762   77.4087 C   0  0  0  0  0  0  0  0  0  0  0  0
   12.6330   22.3957   75.9822 C   0  0  0  0  0  0  0  0  0  0  0  0
   11.8705   23.6206   76.3693 C   0  0  0  0  0  0  0  0  0  0  0  0
   12.5261   24.7976   76.0747 C   0  0  0  0  0  0  0  0  0  0  0  0
   11.9739   26.0258   76.3604 C   0  0  0  0  0  0  0  0  0  0  0  0
   10.7306   26.0149   76.9567 C   0  0  0  0  0  0  0  0  0  0  0  0
   10.0656   24.8381   77.2558 C   0  0  0  0  0  0  0  0  0  0  0  0
   10.6265   23.6258   76.9662 C   0  0  0  0  0  0  0  0  0  0  0  0
    9.7745   22.4501   77.3556 C   0  0  0  0  0  0  0  0  0  0  0  0
   10.5925   21.7017   78.4142 C   0  0  0  0  0  0  0  0  0  0  0  0
   12.0632   22.0400   78.2824 C   0  0  0  0  0  0  0  0  0  0  0  0
   15.8359   18.2759   75.6728 N   0  0  0  0  0  4  0  0  0  0  0  0
   12.6414   21.4680   77.0719 N   0  0  2  0  0  4  0  0  0  0  0  0
   13.8173   18.6010   77.9999 O   0  0  0  0  0  0  0  0  0  0  0  0
  1  2  1  0
  4  1  1  0
  1 17  1  1
  2 15  1  0
 15  3  1  0
 16  4  1  1
  5  6  1  0
  5 16  1  0
  6  7  2  0
  6 11  1  0
  7  8  1  0
  8  9  2  0
  9 10  1  0
 10 11  2  0
 11 12  1  0
 12 13  1  0
 13 14  1  0
 14 16  1  0
M  CHG  2  15   1  16   1
M  END
$$$$
