
     RDKit          3D

 17 18  0  0  0  0  0  0  0  0999 V2000
   14.8992   20.5807   75.8279 C   0  0  2  0  0  0  0  0  0  0  0  0
   14.6373   19.1112   76.1955 C   0  0  0  0  0  0  0  0  0  0  0  0
   15.4886   17.0301   76.7981 C   0  0  0  0  0  0  0  0  0  0  0  0
   13.5459   21.1877   75.5958 C   0  0  0  0  0  0  0  0  0  0  0  0
   12.9188   22.0019   77.7970 C   0  0  0  0  0  0  0  0  0  0  0  0
   11.6555   22.6821   78.2125 C   0  0  0  0  0  0  0  0  0  0  0  0
   10.7848   21.8624   78.8995 C   0  0  0  0  0  0  0  0  0  0  0  0
    9.5707   22.3190   79.3605 C   0  0  0  0  0  0  0  0  0  0  0  0
    9.2730   23.6397   79.0982 C   0  0  0  0  0  0  0  0  0  0  0  0
   10.1412   24.4694   78.4093 C   0  0  0  0  0  0  0  0  0  0  0  0
   11.3434   24.0018   77.9576 C   0  0  0  0  0  0  0  0  0  0  0  0
   12.1642   25.0300   77.2301 C   0  0  0  0  0  0  0  0  0  0  0  0
   12.2988   24.4906   75.8015 C   0  0  0  0  0  0  0  0  0  0  0  0
   12.0844   22.9911   75.7803 C   0  0  0  0  0  0  0  0  0  0  0  0
   15.8510   18.4414   76.5892 N   0  0  0  0  0  4  0  0  0  0  0  0
   13.1860   22.2801   76.4188 N   0  0  2  0  0  4  0  0  0  0  0  0
   15.6444   20.6723   74.6682 O   0  0  0  0  0  0  0  0  0  0  0  0
  1  2  1  0
  4  1  1  0
  1 17  1  6
  2 15  1  0
 15  3  1  0
 16  4  1  6
  5  6  1  0
  5 16  1  0
  6  7  2  0
  6 11  1  0
  7  8  1  0
  8  9  2  0
  9 10  1  0
 10 11  2  0
 11 12  1  0
 12 13  1  0
 13 14  1  0
 14 16  1  0
M  CHG  2  15   1  16   1
M  END
$$$$
