
     RDKit          3D

 17 18  0  0  0  0  0  0  0  0999 V2000
   15.3234   20.6548   76.0823 C   0  0  2  0  0  0  0  0  0  0  0  0
   14.8884   19.1821   76.1545 C   0  0  0  0  0  0  0  0  0  0  0  0
   15.4357   16.9614   76.5878 C   0  0  0  0  0  0  0  0  0  0  0  0
   14.1361   21.4022   75.5477 C   0  0  0  0  0  0  0  0  0  0  0  0
   12.9380   21.8399   77.6151 C   0  0  0  0  0  0  0  0  0  0  0  0
   11.5806   22.4371   77.7955 C   0  0  0  0  0  0  0  0  0  0  0  0
   10.6038   21.5118   78.0980 C   0  0  0  0  0  0  0  0  0  0  0  0
    9.2930   21.8810   78.2990 C   0  0  0  0  0  0  0  0  0  0  0  0
    9.0103   23.2256   78.1815 C   0  0  0  0  0  0  0  0  0  0  0  0
    9.9847   24.1611   77.8782 C   0  0  0  0  0  0  0  0  0  0  0  0
   11.2822   23.7794   77.6812 C   0  0  0  0  0  0  0  0  0  0  0  0
   12.2113   24.9168   77.3602 C   0  0  0  0  0  0  0  0  0  0  0  0
   12.7262   24.6208   75.9471 C   0  0  0  0  0  0  0  0  0  0  0  0
   12.5936   23.1443   75.6347 C   0  0  0  0  0  0  0  0  0  0  0  0
   15.9697   18.3331   76.5866 N   0  0  0  0  0  4  0  0  0  0  0  0
   13.5305   22.3426   76.4133 N   0  0  2  0  0  4  0  0  0  0  0  0
   16.3880   20.8113   75.2159 O   0  0  0  0  0  0  0  0  0  0  0  0
  1  2  1  0
  4  1  1  0
  1 17  1  6
  2 15  1  0
 15  3  1  0
 16  4  1  6
  5  6  1  0
  5 16  1  0
  6  7  2  0
  6 11  1  0
  7  8  1  0
  8  9  2  0
  9 10  1  0
 10 11  2  0
 11 12  1  0
 12 13  1  0
 13 14  1  0
 14 16  1  0
M  CHG  2  15   1  16   1
M  END
$$$$
