
     RDKit          3D

 17 18  0  0  0  0  0  0  0  0999 V2000
   14.2811   20.3706   75.6331 C   0  0  2  0  0  0  0  0  0  0  0  0
   14.5459   19.2707   76.6740 C   0  0  0  0  0  0  0  0  0  0  0  0
   15.8994   17.5367   77.4355 C   0  0  0  0  0  0  0  0  0  0  0  0
   12.8471   20.7722   75.8239 C   0  0  0  0  0  0  0  0  0  0  0  0
   12.4349   21.7256   78.0200 C   0  0  0  0  0  0  0  0  0  0  0  0
   11.2415   22.4889   78.4940 C   0  0  0  0  0  0  0  0  0  0  0  0
   10.3905   21.7496   79.2885 C   0  0  0  0  0  0  0  0  0  0  0  0
    9.2394   22.2896   79.8160 C   0  0  0  0  0  0  0  0  0  0  0  0
    8.9839   23.6090   79.5069 C   0  0  0  0  0  0  0  0  0  0  0  0
    9.8327   24.3583   78.7102 C   0  0  0  0  0  0  0  0  0  0  0  0
   10.9723   23.8084   78.1934 C   0  0  0  0  0  0  0  0  0  0  0  0
   11.7800   24.7562   77.3512 C   0  0  0  0  0  0  0  0  0  0  0  0
   11.7759   24.1403   75.9475 C   0  0  0  0  0  0  0  0  0  0  0  0
   11.4907   22.6544   76.0230 C   0  0  0  0  0  0  0  0  0  0  0  0
   15.8150   18.6261   76.4493 N   0  0  0  0  0  4  0  0  0  0  0  0
   12.6049   21.9211   76.6125 N   0  0  2  0  0  4  0  0  0  0  0  0
   14.4515   19.8857   74.3509 O   0  0  0  0  0  0  0  0  0  0  0  0
  1  2  1  0
  4  1  1  0
  1 17  1  6
  2 15  1  0
 15  3  1  0
 16  4  1  6
  5  6  1  0
  5 16  1  0
  6  7  2  0
  6 11  1  0
  7  8  1  0
  8  9  2  0
  9 10  1  0
 10 11  2  0
 11 12  1  0
 12 13  1  0
 13 14  1  0
 14 16  1  0
M  CHG  2  15   1  16   1
M  END
$$$$
