
     RDKit          3D

 17 18  0  0  0  0  0  0  0  0999 V2000
   14.9783   18.8625   76.1803 C   0  0  2  0  0  0  0  0  0  0  0  0
   15.1313   20.3660   76.4625 C   0  0  0  0  0  0  0  0  0  0  0  0
   16.1378   22.3992   75.9412 C   0  0  0  0  0  0  0  0  0  0  0  0
   14.0906   18.3341   77.2696 C   0  0  0  0  0  0  0  0  0  0  0  0
   12.4627   20.1074   77.5966 C   0  0  0  0  0  0  0  0  0  0  0  0
   11.3248   20.1594   78.5630 C   0  0  0  0  0  0  0  0  0  0  0  0
   11.5645   20.9617   79.6588 C   0  0  0  0  0  0  0  0  0  0  0  0
   10.6275   21.1294   80.6532 C   0  0  0  0  0  0  0  0  0  0  0  0
    9.4371   20.4519   80.4939 C   0  0  0  0  0  0  0  0  0  0  0  0
    9.1882   19.6446   79.3971 C   0  0  0  0  0  0  0  0  0  0  0  0
   10.1283   19.4877   78.4176 C   0  0  0  0  0  0  0  0  0  0  0  0
    9.6994   18.5789   77.2995 C   0  0  0  0  0  0  0  0  0  0  0  0
   10.6801   17.4017   77.3477 C   0  0  0  0  0  0  0  0  0  0  0  0
   11.9601   17.8084   78.0485 C   0  0  0  0  0  0  0  0  0  0  0  0
   16.1065   20.9700   75.5903 N   0  0  0  0  0  4  0  0  0  0  0  0
   12.7380   18.7469   77.2480 N   0  0  2  0  0  4  0  0  0  0  0  0
   16.2019   18.2239   76.2401 O   0  0  0  0  0  0  0  0  0  0  0  0
  1  2  1  0
  4  1  1  0
  1 17  1  1
  2 15  1  0
 15  3  1  0
 16  4  1  1
  5  6  1  0
  5 16  1  0
  6  7  2  0
  6 11  1  0
  7  8  1  0
  8  9  2  0
  9 10  1  0
 10 11  2  0
 11 12  1  0
 12 13  1  0
 13 14  1  0
 14 16  1  0
M  CHG  2  15   1  16   1
M  END
$$$$
