
     RDKit          3D

 17 18  0  0  0  0  0  0  0  0999 V2000
   14.7756   20.6886   76.3257 C   0  0  2  0  0  0  0  0  0  0  0  0
   14.9171   19.2269   76.7805 C   0  0  0  0  0  0  0  0  0  0  0  0
   15.8173   17.1089   76.4306 C   0  0  0  0  0  0  0  0  0  0  0  0
   14.0442   21.3888   77.4340 C   0  0  0  0  0  0  0  0  0  0  0  0
   12.7679   23.1183   76.3020 C   0  0  0  0  0  0  0  0  0  0  0  0
   11.8429   24.1306   76.8945 C   0  0  0  0  0  0  0  0  0  0  0  0
   12.3876   25.3945   76.9827 C   0  0  0  0  0  0  0  0  0  0  0  0
   11.6795   26.4542   77.5028 C   0  0  0  0  0  0  0  0  0  0  0  0
   10.3968   26.1832   77.9303 C   0  0  0  0  0  0  0  0  0  0  0  0
    9.8423   24.9175   77.8454 C   0  0  0  0  0  0  0  0  0  0  0  0
   10.5577   23.8749   77.3265 C   0  0  0  0  0  0  0  0  0  0  0  0
    9.8099   22.5709   77.3072 C   0  0  0  0  0  0  0  0  0  0  0  0
   10.6079   21.6431   78.2303 C   0  0  0  0  0  0  0  0  0  0  0  0
   12.0380   22.1264   78.3576 C   0  0  0  0  0  0  0  0  0  0  0  0
   15.7535   18.4730   75.8812 N   0  0  0  0  0  4  0  0  0  0  0  0
   12.7817   21.9418   77.1169 N   0  0  2  0  0  4  0  0  0  0  0  0
   14.0316   20.7726   75.1647 O   0  0  0  0  0  0  0  0  0  0  0  0
  1  2  1  0
  4  1  1  0
  1 17  1  6
  2 15  1  0
 15  3  1  0
 16  4  1  1
  5  6  1  0
  5 16  1  0
  6  7  2  0
  6 11  1  0
  7  8  1  0
  8  9  2  0
  9 10  1  0
 10 11  2  0
 11 12  1  0
 12 13  1  0
 13 14  1  0
 14 16  1  0
M  CHG  2  15   1  16   1
M  END
$$$$
