
     RDKit          3D

 17 18  0  0  0  0  0  0  0  0999 V2000
   14.4541   20.3629   75.6190 C   0  0  2  0  0  0  0  0  0  0  0  0
   15.1517   19.3953   76.5887 C   0  0  0  0  0  0  0  0  0  0  0  0
   16.0387   17.2811   76.9915 C   0  0  0  0  0  0  0  0  0  0  0  0
   14.3075   21.6542   76.3707 C   0  0  0  0  0  0  0  0  0  0  0  0
   12.3291   22.6665   75.3895 C   0  0  0  0  0  0  0  0  0  0  0  0
   11.6918   23.9761   75.7217 C   0  0  0  0  0  0  0  0  0  0  0  0
   11.9535   24.9690   74.8010 C   0  0  0  0  0  0  0  0  0  0  0  0
   11.4480   26.2414   74.9440 C   0  0  0  0  0  0  0  0  0  0  0  0
   10.6663   26.4688   76.0570 C   0  0  0  0  0  0  0  0  0  0  0  0
   10.3987   25.4778   76.9861 C   0  0  0  0  0  0  0  0  0  0  0  0
   10.9077   24.2189   76.8307 C   0  0  0  0  0  0  0  0  0  0  0  0
   10.5224   23.2649   77.9268 C   0  0  0  0  0  0  0  0  0  0  0  0
   11.8454   22.8757   78.5962 C   0  0  0  0  0  0  0  0  0  0  0  0
   13.0044   23.1015   77.6472 C   0  0  0  0  0  0  0  0  0  0  0  0
   15.5048   18.1591   75.9376 N   0  0  0  0  0  4  0  0  0  0  0  0
   12.9929   22.1459   76.5456 N   0  0  2  0  0  4  0  0  0  0  0  0
   13.2021   19.8935   75.2715 O   0  0  0  0  0  0  0  0  0  0  0  0
  1  2  1  0
  4  1  1  0
  1 17  1  1
  2 15  1  0
 15  3  1  0
 16  4  1  6
  5  6  1  0
  5 16  1  0
  6  7  2  0
  6 11  1  0
  7  8  1  0
  8  9  2  0
  9 10  1  0
 10 11  2  0
 11 12  1  0
 12 13  1  0
 13 14  1  0
 14 16  1  0
M  CHG  2  15   1  16   1
M  END
$$$$
