
     RDKit          3D

 17 18  0  0  0  0  0  0  0  0999 V2000
   14.1453   19.0845   76.6470 C   0  0  2  0  0  0  0  0  0  0  0  0
   15.6005   19.4367   76.2982 C   0  0  0  0  0  0  0  0  0  0  0  0
   17.5717   18.8797   75.1923 C   0  0  0  0  0  0  0  0  0  0  0  0
   13.7056   20.1191   77.6422 C   0  0  0  0  0  0  0  0  0  0  0  0
   12.7533   21.9162   76.3137 C   0  0  0  0  0  0  0  0  0  0  0  0
   12.1208   23.1856   76.7828 C   0  0  0  0  0  0  0  0  0  0  0  0
   12.9335   24.2919   76.6498 C   0  0  0  0  0  0  0  0  0  0  0  0
   12.5167   25.5474   77.0304 C   0  0  0  0  0  0  0  0  0  0  0  0
   11.2432   25.6385   77.5513 C   0  0  0  0  0  0  0  0  0  0  0  0
   10.4208   24.5332   77.6882 C   0  0  0  0  0  0  0  0  0  0  0  0
   10.8485   23.2927   77.3059 C   0  0  0  0  0  0  0  0  0  0  0  0
    9.8349   22.2038   77.5221 C   0  0  0  0  0  0  0  0  0  0  0  0
   10.4807   21.2584   78.5414 C   0  0  0  0  0  0  0  0  0  0  0  0
   11.9872   21.4166   78.5286 C   0  0  0  0  0  0  0  0  0  0  0  0
   16.1601   18.4975   75.3592 N   0  0  0  0  0  4  0  0  0  0  0  0
   12.5735   20.8945   77.2996 N   0  0  2  0  0  4  0  0  0  0  0  0
   14.0675   17.8329   77.2267 O   0  0  0  0  0  0  0  0  0  0  0  0
  1  2  1  0
  4  1  1  0
  1 17  1  1
  2 15  1  0
 15  3  1  0
 16  4  1  1
  5  6  1  0
  5 16  1  0
  6  7  2  0
  6 11  1  0
  7  8  1  0
  8  9  2  0
  9 10  1  0
 10 11  2  0
 11 12  1  0
 12 13  1  0
 13 14  1  0
 14 16  1  0
M  CHG  2  15   1  16   1
M  END
$$$$
