
     RDKit          3D

 17 18  0  0  0  0  0  0  0  0999 V2000
   14.8992   20.5939   76.2410 C   0  0  2  0  0  0  0  0  0  0  0  0
   15.0598   19.1263   76.6695 C   0  0  0  0  0  0  0  0  0  0  0  0
   16.1107   17.0694   76.3802 C   0  0  0  0  0  0  0  0  0  0  0  0
   14.0232   21.2267   77.2831 C   0  0  0  0  0  0  0  0  0  0  0  0
   13.2008   23.1890   76.1109 C   0  0  0  0  0  0  0  0  0  0  0  0
   12.3366   24.2903   76.6322 C   0  0  0  0  0  0  0  0  0  0  0  0
   13.0260   25.4525   76.9078 C   0  0  0  0  0  0  0  0  0  0  0  0
   12.3923   26.5729   77.3956 C   0  0  0  0  0  0  0  0  0  0  0  0
   11.0315   26.4697   77.5937 C   0  0  0  0  0  0  0  0  0  0  0  0
   10.3317   25.3069   77.3198 C   0  0  0  0  0  0  0  0  0  0  0  0
   10.9748   24.2023   76.8356 C   0  0  0  0  0  0  0  0  0  0  0  0
   10.0701   23.0265   76.5929 C   0  0  0  0  0  0  0  0  0  0  0  0
   10.5694   21.9385   77.5504 C   0  0  0  0  0  0  0  0  0  0  0  0
   12.0106   22.1970   77.9389 C   0  0  0  0  0  0  0  0  0  0  0  0
   16.0754   18.4587   75.8951 N   0  0  0  0  0  4  0  0  0  0  0  0
   12.9184   21.9777   76.8188 N   0  0  2  0  0  4  0  0  0  0  0  0
   14.2786   20.6818   75.0099 O   0  0  0  0  0  0  0  0  0  0  0  0
  1  2  1  0
  4  1  1  0
  1 17  1  6
  2 15  1  0
 15  3  1  0
 16  4  1  1
  5  6  1  0
  5 16  1  0
  6  7  2  0
  6 11  1  0
  7  8  1  0
  8  9  2  0
  9 10  1  0
 10 11  2  0
 11 12  1  0
 12 13  1  0
 13 14  1  0
 14 16  1  0
M  CHG  2  15   1  16   1
M  END
$$$$
