
     RDKit          3D

 17 18  0  0  0  0  0  0  0  0999 V2000
   13.8641   19.5211   76.4009 C   0  0  2  0  0  0  0  0  0  0  0  0
   15.3564   19.7733   76.1309 C   0  0  0  0  0  0  0  0  0  0  0  0
   17.4268   18.9484   75.4588 C   0  0  0  0  0  0  0  0  0  0  0  0
   13.4876   20.4637   77.5070 C   0  0  0  0  0  0  0  0  0  0  0  0
   12.3203   22.1027   76.1459 C   0  0  0  0  0  0  0  0  0  0  0  0
   11.8642   23.4733   76.5266 C   0  0  0  0  0  0  0  0  0  0  0  0
   12.6650   24.4812   76.0318 C   0  0  0  0  0  0  0  0  0  0  0  0
   12.3971   25.8082   76.2814 C   0  0  0  0  0  0  0  0  0  0  0  0
   11.2853   26.0744   77.0526 C   0  0  0  0  0  0  0  0  0  0  0  0
   10.4762   25.0687   77.5532 C   0  0  0  0  0  0  0  0  0  0  0  0
   10.7548   23.7554   77.2970 C   0  0  0  0  0  0  0  0  0  0  0  0
    9.7790   22.7926   77.9139 C   0  0  0  0  0  0  0  0  0  0  0  0
   10.6088   21.9686   78.9051 C   0  0  0  0  0  0  0  0  0  0  0  0
   12.0754   22.0083   78.5278 C   0  0  0  0  0  0  0  0  0  0  0  0
   16.0104   18.5887   75.6350 N   0  0  0  0  0  4  0  0  0  0  0  0
   12.3373   21.2609   77.3032 N   0  0  2  0  0  4  0  0  0  0  0  0
   13.6526   18.2213   76.8183 O   0  0  0  0  0  0  0  0  0  0  0  0
  1  2  1  0
  4  1  1  0
  1 17  1  1
  2 15  1  0
 15  3  1  0
 16  4  1  1
  5  6  1  0
  5 16  1  0
  6  7  2  0
  6 11  1  0
  7  8  1  0
  8  9  2  0
  9 10  1  0
 10 11  2  0
 11 12  1  0
 12 13  1  0
 13 14  1  0
 14 16  1  0
M  CHG  2  15   1  16   1
M  END
$$$$
