
     RDKit          3D

 17 18  0  0  0  0  0  0  0  0999 V2000
   14.2949   20.6025   76.8363 C   0  0  2  0  0  0  0  0  0  0  0  0
   14.8117   19.2533   76.3110 C   0  0  0  0  0  0  0  0  0  0  0  0
   16.5982   17.9494   75.5852 C   0  0  0  0  0  0  0  0  0  0  0  0
   12.8402   20.3888   77.1397 C   0  0  0  0  0  0  0  0  0  0  0  0
   12.0659   22.2825   78.4497 C   0  0  0  0  0  0  0  0  0  0  0  0
   10.6741   22.6059   78.8853 C   0  0  0  0  0  0  0  0  0  0  0  0
   10.4287   22.3219   80.2124 C   0  0  0  0  0  0  0  0  0  0  0  0
    9.2005   22.5554   80.7884 C   0  0  0  0  0  0  0  0  0  0  0  0
    8.2297   23.0884   79.9667 C   0  0  0  0  0  0  0  0  0  0  0  0
    8.4675   23.3764   78.6336 C   0  0  0  0  0  0  0  0  0  0  0  0
    9.6924   23.1390   78.0755 C   0  0  0  0  0  0  0  0  0  0  0  0
    9.7821   23.5068   76.6206 C   0  0  0  0  0  0  0  0  0  0  0  0
   10.0603   22.1856   75.8947 C   0  0  0  0  0  0  0  0  0  0  0  0
   10.6688   21.1770   76.8472 C   0  0  0  0  0  0  0  0  0  0  0  0
   16.2374   19.2792   76.1030 N   0  0  0  0  0  4  0  0  0  0  0  0
   12.0288   21.5442   77.2243 N   0  0  2  0  0  4  0  0  0  0  0  0
   14.4198   21.5855   75.8737 O   0  0  0  0  0  0  0  0  0  0  0  0
  1  2  1  0
  4  1  1  0
  1 17  1  6
  2 15  1  0
 15  3  1  0
 16  4  1  1
  5  6  1  0
  5 16  1  0
  6  7  2  0
  6 11  1  0
  7  8  1  0
  8  9  2  0
  9 10  1  0
 10 11  2  0
 11 12  1  0
 12 13  1  0
 13 14  1  0
 14 16  1  0
M  CHG  2  15   1  16   1
M  END
$$$$
