
     RDKit          3D

 31 34  0  0  0  0  0  0  0  0999 V2000
  -13.4328    8.7982    0.4426 C   0  0  0  0  0  0  0  0  0  0  0  0
  -12.5926    9.0280   -0.6254 C   0  0  0  0  0  0  0  0  0  0  0  0
  -11.2171    9.1867   -0.4522 C   0  0  0  0  0  0  0  0  0  0  0  0
  -10.6541    9.1166    0.8133 C   0  0  0  0  0  0  0  0  0  0  0  0
  -11.4919    8.8872    1.8814 C   0  0  0  0  0  0  0  0  0  0  0  0
  -27.1047    8.2981   -2.5684 C   0  0  0  0  0  0  0  0  0  0  0  0
  -25.7249    8.6087   -2.1467 C   0  0  0  0  0  0  0  0  0  0  0  0
  -24.6790    8.5477   -3.0131 C   0  0  0  0  0  0  0  0  0  0  0  0
  -23.3914    8.8401   -2.6104 C   0  0  0  0  0  0  0  0  0  0  0  0
  -25.4467    8.9777   -0.8377 C   0  0  0  0  0  0  0  0  0  0  0  0
  -24.1617    9.2706   -0.4323 C   0  0  0  0  0  0  0  0  0  0  0  0
  -23.1052    9.2074   -1.3133 C   0  0  0  0  0  0  0  0  0  0  0  0
  -20.3605    8.1549   -1.0887 C   0  0  1  0  0  0  0  0  0  0  0  0
  -19.6544    6.2244   -0.2039 C   0  0  2  0  0  0  0  0  0  0  0  0
  -19.4889    5.4542    1.0907 C   0  0  0  0  0  0  0  0  0  0  0  0
  -18.4023    6.2569   -1.0318 C   0  0  1  0  0  0  0  0  0  0  0  0
  -17.9434    7.6129   -1.4423 C   0  0  1  0  0  0  0  0  0  0  0  0
  -15.5520    8.0693   -0.7900 C   0  0  0  0  0  0  0  0  0  0  0  0
  -14.8717    8.6306    0.2697 C   0  0  0  0  0  0  0  0  0  0  0  0
  -12.8560    8.7312    1.6961 C   0  0  0  0  0  0  0  0  0  0  0  0
  -19.0095    8.6522   -1.5455 C   0  0  1  0  0  0  0  0  0  0  0  0
  -10.4016    9.4113   -1.5069 F   0  0  0  0  0  0  0  0  0  0  0  0
   -9.3087    9.2763    0.9457 F   0  0  0  0  0  0  0  0  0  0  0  0
  -16.8753    8.1084   -0.5584 N   0  0  0  0  0  0  0  0  0  0  0  0
  -15.8386    8.9993    1.1287 N   0  0  0  0  0  0  0  0  0  0  0  0
  -17.0208    8.6825    0.6226 N   0  0  0  0  0  0  0  0  0  0  0  0
  -20.1421    7.4891    0.1241 O   0  0  0  0  0  0  0  0  0  0  0  0
  -20.4637    4.4985    1.2869 O   0  0  0  0  0  0  0  0  0  0  0  0
  -17.3393    5.5987   -0.4179 O   0  0  0  0  0  0  0  0  0  0  0  0
  -19.1719    9.1453   -2.8460 O   0  0  0  0  0  0  0  0  0  0  0  0
  -21.4382    9.5853   -0.7971 S   0  0  0  0  0  0  0  0  0  0  0  0
  1  2  2  0
 19  1  1  0
  1 20  1  0
  2  3  1  0
  3  4  2  0
  3 22  1  0
  5  4  1  0
  4 23  1  0
 20  5  2  0
  7  6  1  0
  8  7  2  0
 10  7  1  0
  9  8  1  0
 12  9  2  0
 11 10  2  0
 12 11  1  0
 31 12  1  0
 21 13  1  0
 13 27  1  0
 13 31  1  1
 14 15  1  1
 16 14  1  0
 14 27  1  0
 15 28  1  0
 17 16  1  0
 16 29  1  1
 17 21  1  0
 17 24  1  1
 18 19  2  0
 18 24  1  0
 19 25  1  0
 21 30  1  6
 24 26  1  0
 25 26  2  0
M  END
$$$$
