
     RDKit          3D

 31 34  0  0  0  0  0  0  0  0999 V2000
  -13.6753    9.2473    0.2509 C   0  0  0  0  0  0  0  0  0  0  0  0
  -12.9046   10.3432   -0.0723 C   0  0  0  0  0  0  0  0  0  0  0  0
  -11.5504   10.4074    0.2581 C   0  0  0  0  0  0  0  0  0  0  0  0
  -10.9386    9.3582    0.9278 C   0  0  0  0  0  0  0  0  0  0  0  0
  -11.7069    8.2627    1.2515 C   0  0  0  0  0  0  0  0  0  0  0  0
  -27.2026    7.9469   -3.2595 C   0  0  0  0  0  0  0  0  0  0  0  0
  -25.8492    8.4004   -2.8841 C   0  0  0  0  0  0  0  0  0  0  0  0
  -25.6367    9.5978   -2.2762 C   0  0  0  0  0  0  0  0  0  0  0  0
  -24.3675   10.0142   -1.9282 C   0  0  0  0  0  0  0  0  0  0  0  0
  -24.7370    7.6108   -3.1417 C   0  0  0  0  0  0  0  0  0  0  0  0
  -23.4677    8.0239   -2.7952 C   0  0  0  0  0  0  0  0  0  0  0  0
  -23.2572    9.2375   -2.1797 C   0  0  0  0  0  0  0  0  0  0  0  0
  -20.5232    8.3460   -1.5297 C   0  0  1  0  0  0  0  0  0  0  0  0
  -19.8311    6.7990   -0.0683 C   0  0  2  0  0  0  0  0  0  0  0  0
  -19.6981    6.4742    1.4060 C   0  0  0  0  0  0  0  0  0  0  0  0
  -18.5561    6.5895   -0.8329 C   0  0  1  0  0  0  0  0  0  0  0  0
  -18.0938    7.7561   -1.6350 C   0  0  1  0  0  0  0  0  0  0  0  0
  -15.7461    8.2207   -0.8444 C   0  0  0  0  0  0  0  0  0  0  0  0
  -15.0914    9.1724   -0.0915 C   0  0  0  0  0  0  0  0  0  0  0  0
  -13.0506    8.2111    0.9177 C   0  0  0  0  0  0  0  0  0  0  0  0
  -19.1627    8.6955   -2.0848 C   0  0  1  0  0  0  0  0  0  0  0  0
  -10.8031   11.4870   -0.0641 F   0  0  0  0  0  0  0  0  0  0  0  0
   -9.6159    9.4543    1.2347 F   0  0  0  0  0  0  0  0  0  0  0  0
  -17.0543    8.5184   -0.9236 N   0  0  0  0  0  0  0  0  0  0  0  0
  -16.0578   10.0362    0.2673 N   0  0  0  0  0  0  0  0  0  0  0  0
  -17.2158    9.6338   -0.2342 N   0  0  0  0  0  0  0  0  0  0  0  0
  -20.3355    8.0956   -0.1644 O   0  0  0  0  0  0  0  0  0  0  0  0
  -20.4547    5.3896    1.7975 O   0  0  0  0  0  0  0  0  0  0  0  0
  -17.5072    6.1716   -0.0174 O   0  0  0  0  0  0  0  0  0  0  0  0
  -19.2908    8.7553   -3.4779 O   0  0  0  0  0  0  0  0  0  0  0  0
  -21.6173    9.7801   -1.7271 S   0  0  0  0  0  0  0  0  0  0  0  0
  1  2  2  0
 19  1  1  0
  1 20  1  0
  2  3  1  0
  3  4  2  0
  3 22  1  0
  5  4  1  0
  4 23  1  0
 20  5  2  0
  7  6  1  0
  8  7  2  0
 10  7  1  0
  9  8  1  0
 12  9  2  0
 11 10  2  0
 12 11  1  0
 31 12  1  0
 21 13  1  0
 13 27  1  0
 13 31  1  1
 14 15  1  1
 16 14  1  0
 14 27  1  0
 15 28  1  0
 17 16  1  0
 16 29  1  1
 17 21  1  0
 17 24  1  1
 18 19  2  0
 18 24  1  0
 19 25  1  0
 21 30  1  6
 24 26  1  0
 25 26  2  0
M  END
$$$$
