
     RDKit          3D

 31 34  0  0  0  0  0  0  0  0999 V2000
  -13.5109    8.9668    0.1831 C   0  0  0  0  0  0  0  0  0  0  0  0
  -12.9804    9.6588    1.2504 C   0  0  0  0  0  0  0  0  0  0  0  0
  -11.6126    9.6407    1.5260 C   0  0  0  0  0  0  0  0  0  0  0  0
  -10.7423    8.9176    0.7240 C   0  0  0  0  0  0  0  0  0  0  0  0
  -11.2705    8.2257   -0.3426 C   0  0  0  0  0  0  0  0  0  0  0  0
  -27.2027    7.9029   -2.5938 C   0  0  0  0  0  0  0  0  0  0  0  0
  -25.8475    8.3088   -2.1731 C   0  0  0  0  0  0  0  0  0  0  0  0
  -24.9092    8.7143   -3.0695 C   0  0  0  0  0  0  0  0  0  0  0  0
  -23.6441    9.0925   -2.6674 C   0  0  0  0  0  0  0  0  0  0  0  0
  -25.4825    8.2900   -0.8339 C   0  0  0  0  0  0  0  0  0  0  0  0
  -24.2195    8.6673   -0.4289 C   0  0  0  0  0  0  0  0  0  0  0  0
  -23.2723    9.0773   -1.3404 C   0  0  0  0  0  0  0  0  0  0  0  0
  -20.4719    8.1964   -1.0689 C   0  0  1  0  0  0  0  0  0  0  0  0
  -19.5232    6.4405   -0.0566 C   0  0  2  0  0  0  0  0  0  0  0  0
  -19.1704    5.8420    1.2903 C   0  0  0  0  0  0  0  0  0  0  0  0
  -18.3629    6.4676   -1.0090 C   0  0  1  0  0  0  0  0  0  0  0  0
  -18.0621    7.7962   -1.6110 C   0  0  1  0  0  0  0  0  0  0  0  0
  -15.6682    8.1013   -0.8838 C   0  0  0  0  0  0  0  0  0  0  0  0
  -14.9395    8.9812   -0.1119 C   0  0  0  0  0  0  0  0  0  0  0  0
  -12.6304    8.2518   -0.6057 C   0  0  0  0  0  0  0  0  0  0  0  0
  -19.2177    8.7348   -1.7158 C   0  0  1  0  0  0  0  0  0  0  0  0
  -11.1023   10.3235    2.5754 F   0  0  0  0  0  0  0  0  0  0  0  0
   -9.4140    8.9218    1.0220 F   0  0  0  0  0  0  0  0  0  0  0  0
  -16.9607    8.4693   -0.9028 N   0  0  0  0  0  0  0  0  0  0  0  0
  -15.8463    9.8756    0.3200 N   0  0  0  0  0  0  0  0  0  0  0  0
  -17.0400    9.5576   -0.1580 N   0  0  0  0  0  0  0  0  0  0  0  0
  -20.0832    7.6956    0.1801 O   0  0  0  0  0  0  0  0  0  0  0  0
  -19.9492    4.7545    1.6264 O   0  0  0  0  0  0  0  0  0  0  0  0
  -17.1942    5.9662   -0.4409 O   0  0  0  0  0  0  0  0  0  0  0  0
  -19.5445    9.0585   -3.0383 O   0  0  0  0  0  0  0  0  0  0  0  0
  -21.6347    9.5680   -0.8249 S   0  0  0  0  0  0  0  0  0  0  0  0
  1  2  2  0
 19  1  1  0
  1 20  1  0
  2  3  1  0
  3  4  2  0
  3 22  1  0
  5  4  1  0
  4 23  1  0
 20  5  2  0
  7  6  1  0
  8  7  2  0
 10  7  1  0
  9  8  1  0
 12  9  2  0
 11 10  2  0
 12 11  1  0
 31 12  1  0
 21 13  1  0
 13 27  1  0
 13 31  1  1
 14 15  1  1
 16 14  1  0
 14 27  1  0
 15 28  1  0
 17 16  1  0
 16 29  1  1
 17 21  1  0
 17 24  1  1
 18 19  2  0
 18 24  1  0
 19 25  1  0
 21 30  1  6
 24 26  1  0
 25 26  2  0
M  END
$$$$
