
     RDKit          3D

 31 34  0  0  0  0  0  0  0  0999 V2000
  -14.2164    8.3387    0.1995 C   0  0  0  0  0  0  0  0  0  0  0  0
  -13.8893    8.5118    1.5270 C   0  0  0  0  0  0  0  0  0  0  0  0
  -12.5622    8.5148    1.9584 C   0  0  0  0  0  0  0  0  0  0  0  0
  -11.5269    8.3416    1.0520 C   0  0  0  0  0  0  0  0  0  0  0  0
  -11.8518    8.1684   -0.2746 C   0  0  0  0  0  0  0  0  0  0  0  0
  -27.7747    7.5611   -3.1432 C   0  0  0  0  0  0  0  0  0  0  0  0
  -26.3005    7.6288   -3.1261 C   0  0  0  0  0  0  0  0  0  0  0  0
  -25.6159    8.0927   -2.0469 C   0  0  0  0  0  0  0  0  0  0  0  0
  -24.2369    8.1524   -2.0393 C   0  0  0  0  0  0  0  0  0  0  0  0
  -25.5563    7.2165   -4.2230 C   0  0  0  0  0  0  0  0  0  0  0  0
  -24.1786    7.2748   -4.2186 C   0  0  0  0  0  0  0  0  0  0  0  0
  -23.4894    7.7453   -3.1232 C   0  0  0  0  0  0  0  0  0  0  0  0
  -21.1301    8.5341   -1.5411 C   0  0  1  0  0  0  0  0  0  0  0  0
  -20.4552   10.4322   -0.5663 C   0  0  2  0  0  0  0  0  0  0  0  0
  -19.8771   11.8087   -0.8265 C   0  0  0  0  0  0  0  0  0  0  0  0
  -19.7063    9.6709    0.4890 C   0  0  1  0  0  0  0  0  0  0  0  0
  -19.2454    8.3122    0.0898 C   0  0  1  0  0  0  0  0  0  0  0  0
  -16.7572    8.3237    0.4919 C   0  0  0  0  0  0  0  0  0  0  0  0
  -15.6012    8.3350   -0.2594 C   0  0  0  0  0  0  0  0  0  0  0  0
  -13.1734    8.1675   -0.6902 C   0  0  0  0  0  0  0  0  0  0  0  0
  -20.0510    7.6428   -0.9733 C   0  0  1  0  0  0  0  0  0  0  0  0
  -12.2521    8.6860    3.2632 F   0  0  0  0  0  0  0  0  0  0  0  0
  -10.2441    8.3495    1.5074 F   0  0  0  0  0  0  0  0  0  0  0  0
  -17.8304    8.3235   -0.3171 N   0  0  0  0  0  0  0  0  0  0  0  0
  -16.0318    8.3414   -1.5335 N   0  0  0  0  0  0  0  0  0  0  0  0
  -17.3562    8.3345   -1.5502 N   0  0  0  0  0  0  0  0  0  0  0  0
  -20.5229    9.7711   -1.7924 O   0  0  0  0  0  0  0  0  0  0  0  0
  -20.8067   12.8217   -0.7180 O   0  0  0  0  0  0  0  0  0  0  0  0
  -18.6141   10.3792    0.9842 O   0  0  0  0  0  0  0  0  0  0  0  0
  -20.6771    6.4706   -0.5320 O   0  0  0  0  0  0  0  0  0  0  0  0
  -21.7056    7.8239   -3.1085 S   0  0  0  0  0  0  0  0  0  0  0  0
  1  2  2  0
 19  1  1  0
  1 20  1  0
  2  3  1  0
  3  4  2  0
  3 22  1  0
  5  4  1  0
  4 23  1  0
 20  5  2  0
  7  6  1  0
  8  7  2  0
 10  7  1  0
  9  8  1  0
 12  9  2  0
 11 10  2  0
 12 11  1  0
 31 12  1  0
 21 13  1  0
 13 27  1  0
 13 31  1  6
 14 15  1  6
 16 14  1  0
 14 27  1  0
 15 28  1  0
 17 16  1  0
 16 29  1  6
 17 21  1  0
 17 24  1  6
 18 19  2  0
 18 24  1  0
 19 25  1  0
 21 30  1  1
 24 26  1  0
 25 26  2  0
M  END
$$$$
