
     RDKit          3D

 31 34  0  0  0  0  0  0  0  0999 V2000
  -13.5137    9.1686    0.2438 C   0  0  0  0  0  0  0  0  0  0  0  0
  -12.9681    9.5145    1.4612 C   0  0  0  0  0  0  0  0  0  0  0  0
  -11.5872    9.5818    1.6505 C   0  0  0  0  0  0  0  0  0  0  0  0
  -10.7188    9.2990    0.6068 C   0  0  0  0  0  0  0  0  0  0  0  0
  -11.2621    8.9531   -0.6100 C   0  0  0  0  0  0  0  0  0  0  0  0
  -26.9001    9.0028   -3.6794 C   0  0  0  0  0  0  0  0  0  0  0  0
  -25.6067    9.2357   -3.0078 C   0  0  0  0  0  0  0  0  0  0  0  0
  -24.6761   10.0856   -3.5178 C   0  0  0  0  0  0  0  0  0  0  0  0
  -23.4689   10.2978   -2.8830 C   0  0  0  0  0  0  0  0  0  0  0  0
  -25.2944    8.5879   -1.8204 C   0  0  0  0  0  0  0  0  0  0  0  0
  -24.0894    8.7978   -1.1836 C   0  0  0  0  0  0  0  0  0  0  0  0
  -23.1498    9.6596   -1.7039 C   0  0  0  0  0  0  0  0  0  0  0  0
  -20.4756    8.5341   -1.1809 C   0  0  1  0  0  0  0  0  0  0  0  0
  -19.6774    6.6501   -0.2745 C   0  0  2  0  0  0  0  0  0  0  0  0
  -19.4416    5.9195    1.0321 C   0  0  0  0  0  0  0  0  0  0  0  0
  -18.4573    6.6996   -1.1479 C   0  0  1  0  0  0  0  0  0  0  0  0
  -18.0566    8.0579   -1.6086 C   0  0  1  0  0  0  0  0  0  0  0  0
  -15.6536    8.4166   -0.9380 C   0  0  0  0  0  0  0  0  0  0  0  0
  -14.9561    9.0966    0.0378 C   0  0  0  0  0  0  0  0  0  0  0  0
  -12.6350    8.8900   -0.7851 C   0  0  0  0  0  0  0  0  0  0  0  0
  -19.1581    9.0608   -1.6989 C   0  0  1  0  0  0  0  0  0  0  0  0
  -11.0621    9.9227    2.8489 F   0  0  0  0  0  0  0  0  0  0  0  0
   -9.3775    9.3741    0.8267 F   0  0  0  0  0  0  0  0  0  0  0  0
  -16.9740    8.6090   -0.7768 N   0  0  0  0  0  0  0  0  0  0  0  0
  -15.9099    9.6928    0.7750 N   0  0  0  0  0  0  0  0  0  0  0  0
  -17.1009    9.3935    0.2786 N   0  0  0  0  0  0  0  0  0  0  0  0
  -20.1931    7.9073    0.0394 O   0  0  0  0  0  0  0  0  0  0  0  0
  -20.5301    5.1837    1.4515 O   0  0  0  0  0  0  0  0  0  0  0  0
  -17.3528    6.0907   -0.5568 O   0  0  0  0  0  0  0  0  0  0  0  0
  -19.3823    9.5145   -3.0045 O   0  0  0  0  0  0  0  0  0  0  0  0
  -21.5871    9.9378   -0.8860 S   0  0  0  0  0  0  0  0  0  0  0  0
  1  2  2  0
 19  1  1  0
  1 20  1  0
  2  3  1  0
  3  4  2  0
  3 22  1  0
  5  4  1  0
  4 23  1  0
 20  5  2  0
  7  6  1  0
  8  7  2  0
 10  7  1  0
  9  8  1  0
 12  9  2  0
 11 10  2  0
 12 11  1  0
 31 12  1  0
 21 13  1  0
 13 27  1  0
 13 31  1  1
 14 15  1  1
 16 14  1  0
 14 27  1  0
 15 28  1  0
 17 16  1  0
 16 29  1  1
 17 21  1  0
 17 24  1  1
 18 19  2  0
 18 24  1  0
 19 25  1  0
 21 30  1  6
 24 26  1  0
 25 26  2  0
M  END
$$$$
