
     RDKit          3D

 31 34  0  0  0  0  0  0  0  0999 V2000
  -13.5973    9.1127    0.3245 C   0  0  0  0  0  0  0  0  0  0  0  0
  -13.1487    8.2455    1.2971 C   0  0  0  0  0  0  0  0  0  0  0  0
  -11.8363    8.2924    1.7692 C   0  0  0  0  0  0  0  0  0  0  0  0
  -10.9400    9.2235    1.2660 C   0  0  0  0  0  0  0  0  0  0  0  0
  -11.3864   10.0905    0.2942 C   0  0  0  0  0  0  0  0  0  0  0  0
  -27.0541    7.6817   -3.3244 C   0  0  0  0  0  0  0  0  0  0  0  0
  -25.6873    8.1572   -3.0348 C   0  0  0  0  0  0  0  0  0  0  0  0
  -25.3947    9.4809   -2.9325 C   0  0  0  0  0  0  0  0  0  0  0  0
  -24.1134    9.9170   -2.6612 C   0  0  0  0  0  0  0  0  0  0  0  0
  -24.6443    7.2589   -2.8551 C   0  0  0  0  0  0  0  0  0  0  0  0
  -23.3633    7.6913   -2.5838 C   0  0  0  0  0  0  0  0  0  0  0  0
  -23.0715    9.0331   -2.4811 C   0  0  0  0  0  0  0  0  0  0  0  0
  -20.3402    8.1874   -1.7626 C   0  0  1  0  0  0  0  0  0  0  0  0
  -19.6978    6.7900   -0.1369 C   0  0  2  0  0  0  0  0  0  0  0  0
  -19.6033    6.6137    1.3653 C   0  0  0  0  0  0  0  0  0  0  0  0
  -18.4068    6.4962   -0.8449 C   0  0  1  0  0  0  0  0  0  0  0  0
  -17.9146    7.5733   -1.7479 C   0  0  1  0  0  0  0  0  0  0  0  0
  -15.6316    8.0249   -0.7801 C   0  0  0  0  0  0  0  0  0  0  0  0
  -14.9678    9.0703   -0.1738 C   0  0  0  0  0  0  0  0  0  0  0  0
  -12.6919   10.0337   -0.1660 C   0  0  0  0  0  0  0  0  0  0  0  0
  -18.9635    8.4701   -2.3159 C   0  0  1  0  0  0  0  0  0  0  0  0
  -11.4064    7.4373    2.7241 F   0  0  0  0  0  0  0  0  0  0  0  0
   -9.6674    9.2410    1.7491 F   0  0  0  0  0  0  0  0  0  0  0  0
  -16.8854    8.3959   -1.0907 N   0  0  0  0  0  0  0  0  0  0  0  0
  -15.8728   10.0646   -0.1395 N   0  0  0  0  0  0  0  0  0  0  0  0
  -17.0046    9.6483   -0.6871 N   0  0  0  0  0  0  0  0  0  0  0  0
  -20.1877    8.0738   -0.3749 O   0  0  0  0  0  0  0  0  0  0  0  0
  -20.5833    5.7925    1.8823 O   0  0  0  0  0  0  0  0  0  0  0  0
  -17.3818    6.1550    0.0342 O   0  0  0  0  0  0  0  0  0  0  0  0
  -19.0576    8.3909   -3.7108 O   0  0  0  0  0  0  0  0  0  0  0  0
  -21.4159    9.6019   -2.1297 S   0  0  0  0  0  0  0  0  0  0  0  0
  1  2  2  0
 19  1  1  0
  1 20  1  0
  2  3  1  0
  3  4  2  0
  3 22  1  0
  5  4  1  0
  4 23  1  0
 20  5  2  0
  7  6  1  0
  8  7  2  0
 10  7  1  0
  9  8  1  0
 12  9  2  0
 11 10  2  0
 12 11  1  0
 31 12  1  0
 21 13  1  0
 13 27  1  0
 13 31  1  1
 14 15  1  1
 16 14  1  0
 14 27  1  0
 15 28  1  0
 17 16  1  0
 16 29  1  1
 17 21  1  0
 17 24  1  1
 18 19  2  0
 18 24  1  0
 19 25  1  0
 21 30  1  6
 24 26  1  0
 25 26  2  0
M  END
$$$$
