
     RDKit          3D

 31 34  0  0  0  0  0  0  0  0999 V2000
  -13.4374    8.9845    0.4952 C   0  0  0  0  0  0  0  0  0  0  0  0
  -12.9847    9.1974    1.7793 C   0  0  0  0  0  0  0  0  0  0  0  0
  -11.6218    9.2468    2.0750 C   0  0  0  0  0  0  0  0  0  0  0  0
  -10.6775    9.0810    1.0728 C   0  0  0  0  0  0  0  0  0  0  0  0
  -11.1280    8.8682   -0.2106 C   0  0  0  0  0  0  0  0  0  0  0  0
  -26.9462    8.1754   -3.2224 C   0  0  0  0  0  0  0  0  0  0  0  0
  -25.5985    8.5667   -2.7655 C   0  0  0  0  0  0  0  0  0  0  0  0
  -25.3364    9.8122   -2.2875 C   0  0  0  0  0  0  0  0  0  0  0  0
  -24.0730   10.1699   -1.8619 C   0  0  0  0  0  0  0  0  0  0  0  0
  -24.5428    7.6663   -2.8089 C   0  0  0  0  0  0  0  0  0  0  0  0
  -23.2795    8.0205   -2.3844 C   0  0  0  0  0  0  0  0  0  0  0  0
  -23.0187    9.2832   -1.9010 C   0  0  0  0  0  0  0  0  0  0  0  0
  -20.3010    8.2960   -1.3253 C   0  0  1  0  0  0  0  0  0  0  0  0
  -19.6201    6.5797   -0.0607 C   0  0  2  0  0  0  0  0  0  0  0  0
  -19.4909    6.0787    1.3637 C   0  0  0  0  0  0  0  0  0  0  0  0
  -18.3455    6.4560   -0.8445 C   0  0  1  0  0  0  0  0  0  0  0  0
  -17.8752    7.7079   -1.4998 C   0  0  1  0  0  0  0  0  0  0  0  0
  -15.5166    8.0959   -0.7002 C   0  0  0  0  0  0  0  0  0  0  0  0
  -14.8605    8.9320    0.1780 C   0  0  0  0  0  0  0  0  0  0  0  0
  -12.4840    8.8213   -0.4911 C   0  0  0  0  0  0  0  0  0  0  0  0
  -18.9377    8.7012   -1.8336 C   0  0  1  0  0  0  0  0  0  0  0  0
  -11.1881    9.4567    3.3382 F   0  0  0  0  0  0  0  0  0  0  0  0
   -9.3564    9.1348    1.3967 F   0  0  0  0  0  0  0  0  0  0  0  0
  -16.8319    8.3723   -0.7012 N   0  0  0  0  0  0  0  0  0  0  0  0
  -15.8332    9.7063    0.6909 N   0  0  0  0  0  0  0  0  0  0  0  0
  -16.9962    9.3615    0.1590 N   0  0  0  0  0  0  0  0  0  0  0  0
  -20.1165    7.8816   -0.0001 O   0  0  0  0  0  0  0  0  0  0  0  0
  -20.4583    5.1586    1.7097 O   0  0  0  0  0  0  0  0  0  0  0  0
  -17.3002    5.9363   -0.0848 O   0  0  0  0  0  0  0  0  0  0  0  0
  -19.0638    8.9295   -3.2094 O   0  0  0  0  0  0  0  0  0  0  0  0
  -21.3861    9.7502   -1.3489 S   0  0  0  0  0  0  0  0  0  0  0  0
  1  2  2  0
 19  1  1  0
  1 20  1  0
  2  3  1  0
  3  4  2  0
  3 22  1  0
  5  4  1  0
  4 23  1  0
 20  5  2  0
  7  6  1  0
  8  7  2  0
 10  7  1  0
  9  8  1  0
 12  9  2  0
 11 10  2  0
 12 11  1  0
 31 12  1  0
 21 13  1  0
 13 27  1  0
 13 31  1  1
 14 15  1  1
 16 14  1  0
 14 27  1  0
 15 28  1  0
 17 16  1  0
 16 29  1  1
 17 21  1  0
 17 24  1  1
 18 19  2  0
 18 24  1  0
 19 25  1  0
 21 30  1  6
 24 26  1  0
 25 26  2  0
M  END
$$$$
