
     RDKit          3D

 31 34  0  0  0  0  0  0  0  0999 V2000
  -13.3763    8.9546    0.3735 C   0  0  0  0  0  0  0  0  0  0  0  0
  -12.7341    8.9377    1.5927 C   0  0  0  0  0  0  0  0  0  0  0  0
  -11.3635    9.1771    1.7002 C   0  0  0  0  0  0  0  0  0  0  0  0
  -10.6042    9.4410    0.5701 C   0  0  0  0  0  0  0  0  0  0  0  0
  -11.2440    9.4582   -0.6488 C   0  0  0  0  0  0  0  0  0  0  0  0
  -26.8289    9.3955   -3.1065 C   0  0  0  0  0  0  0  0  0  0  0  0
  -25.5044    9.5028   -2.4645 C   0  0  0  0  0  0  0  0  0  0  0  0
  -25.2443   10.4324   -1.5070 C   0  0  0  0  0  0  0  0  0  0  0  0
  -24.0026   10.5257   -0.9114 C   0  0  0  0  0  0  0  0  0  0  0  0
  -24.4695    8.6489   -2.8205 C   0  0  0  0  0  0  0  0  0  0  0  0
  -23.2279    8.7394   -2.2274 C   0  0  0  0  0  0  0  0  0  0  0  0
  -22.9690    9.6826   -1.2580 C   0  0  0  0  0  0  0  0  0  0  0  0
  -20.3256    8.4060   -0.9856 C   0  0  1  0  0  0  0  0  0  0  0  0
  -19.6419    6.3642   -0.3757 C   0  0  2  0  0  0  0  0  0  0  0  0
  -19.4638    5.4298    0.8041 C   0  0  0  0  0  0  0  0  0  0  0  0
  -18.4088    6.4800   -1.2242 C   0  0  1  0  0  0  0  0  0  0  0  0
  -17.9298    7.8689   -1.4679 C   0  0  1  0  0  0  0  0  0  0  0  0
  -15.5318    8.3640   -0.8702 C   0  0  0  0  0  0  0  0  0  0  0  0
  -14.8088    8.7059    0.2529 C   0  0  0  0  0  0  0  0  0  0  0  0
  -12.6055    9.2189   -0.7421 C   0  0  0  0  0  0  0  0  0  0  0  0
  -18.9748    8.9327   -1.4089 C   0  0  1  0  0  0  0  0  0  0  0  0
  -10.7433    9.1588    2.9014 F   0  0  0  0  0  0  0  0  0  0  0  0
   -9.2697    9.6697    0.7115 F   0  0  0  0  0  0  0  0  0  0  0  0
  -16.8309    8.2255   -0.5551 N   0  0  0  0  0  0  0  0  0  0  0  0
  -15.7258    8.7630    1.2350 N   0  0  0  0  0  0  0  0  0  0  0  0
  -16.9198    8.4755    0.7391 N   0  0  0  0  0  0  0  0  0  0  0  0
  -20.0940    7.5847    0.1252 O   0  0  0  0  0  0  0  0  0  0  0  0
  -20.5377    4.5873    1.0016 O   0  0  0  0  0  0  0  0  0  0  0  0
  -17.3468    5.7279   -0.7278 O   0  0  0  0  0  0  0  0  0  0  0  0
  -19.1561    9.5930   -2.6303 O   0  0  0  0  0  0  0  0  0  0  0  0
  -21.3645    9.8066   -0.4843 S   0  0  0  0  0  0  0  0  0  0  0  0
  1  2  2  0
 19  1  1  0
  1 20  1  0
  2  3  1  0
  3  4  2  0
  3 22  1  0
  5  4  1  0
  4 23  1  0
 20  5  2  0
  7  6  1  0
  8  7  2  0
 10  7  1  0
  9  8  1  0
 12  9  2  0
 11 10  2  0
 12 11  1  0
 31 12  1  0
 21 13  1  0
 13 27  1  0
 13 31  1  1
 14 15  1  1
 16 14  1  0
 14 27  1  0
 15 28  1  0
 17 16  1  0
 16 29  1  1
 17 21  1  0
 17 24  1  1
 18 19  2  0
 18 24  1  0
 19 25  1  0
 21 30  1  6
 24 26  1  0
 25 26  2  0
M  END
$$$$
