
     RDKit          3D

 31 34  0  0  0  0  0  0  0  0999 V2000
  -13.5868    9.0766    0.2098 C   0  0  0  0  0  0  0  0  0  0  0  0
  -13.1539    8.2112    1.1911 C   0  0  0  0  0  0  0  0  0  0  0  0
  -11.8420    8.2417    1.6656 C   0  0  0  0  0  0  0  0  0  0  0  0
  -10.9300    9.1538    1.1560 C   0  0  0  0  0  0  0  0  0  0  0  0
  -11.3607   10.0191    0.1756 C   0  0  0  0  0  0  0  0  0  0  0  0
  -27.0956    7.6090   -3.1663 C   0  0  0  0  0  0  0  0  0  0  0  0
  -25.7275    8.0962   -2.9037 C   0  0  0  0  0  0  0  0  0  0  0  0
  -25.4613    9.4144   -2.7038 C   0  0  0  0  0  0  0  0  0  0  0  0
  -24.1786    9.8615   -2.4585 C   0  0  0  0  0  0  0  0  0  0  0  0
  -24.6560    7.2152   -2.8512 C   0  0  0  0  0  0  0  0  0  0  0  0
  -23.3734    7.6587   -2.6063 C   0  0  0  0  0  0  0  0  0  0  0  0
  -23.1085    8.9948   -2.4045 C   0  0  0  0  0  0  0  0  0  0  0  0
  -20.3309    8.1678   -1.8638 C   0  0  1  0  0  0  0  0  0  0  0  0
  -19.6157    6.6555   -0.3772 C   0  0  2  0  0  0  0  0  0  0  0  0
  -19.4826    6.3547    1.1021 C   0  0  0  0  0  0  0  0  0  0  0  0
  -18.3338    6.4592   -1.1338 C   0  0  1  0  0  0  0  0  0  0  0  0
  -17.8903    7.6225   -1.9510 C   0  0  1  0  0  0  0  0  0  0  0  0
  -15.6115    8.0370   -0.9571 C   0  0  0  0  0  0  0  0  0  0  0  0
  -14.9568    9.0513   -0.2912 C   0  0  0  0  0  0  0  0  0  0  0  0
  -12.6660    9.9787   -0.2870 C   0  0  0  0  0  0  0  0  0  0  0  0
  -18.9749    8.5348   -2.4186 C   0  0  1  0  0  0  0  0  0  0  0  0
  -11.4276    7.3885    2.6291 F   0  0  0  0  0  0  0  0  0  0  0  0
   -9.6583    9.1557    1.6417 F   0  0  0  0  0  0  0  0  0  0  0  0
  -16.8684    8.4147   -1.2468 N   0  0  0  0  0  0  0  0  0  0  0  0
  -15.8702   10.0342   -0.2002 N   0  0  0  0  0  0  0  0  0  0  0  0
  -16.9983    9.6406   -0.7718 N   0  0  0  0  0  0  0  0  0  0  0  0
  -20.1441    7.9408   -0.4942 O   0  0  0  0  0  0  0  0  0  0  0  0
  -20.5572    5.6609    1.6180 O   0  0  0  0  0  0  0  0  0  0  0  0
  -17.2806    6.0731   -0.3082 O   0  0  0  0  0  0  0  0  0  0  0  0
  -19.0984    8.5720   -3.8130 O   0  0  0  0  0  0  0  0  0  0  0  0
  -21.4510    9.5779   -2.0863 S   0  0  0  0  0  0  0  0  0  0  0  0
  1  2  2  0
 19  1  1  0
  1 20  1  0
  2  3  1  0
  3  4  2  0
  3 22  1  0
  5  4  1  0
  4 23  1  0
 20  5  2  0
  7  6  1  0
  8  7  2  0
 10  7  1  0
  9  8  1  0
 12  9  2  0
 11 10  2  0
 12 11  1  0
 31 12  1  0
 21 13  1  0
 13 27  1  0
 13 31  1  1
 14 15  1  1
 16 14  1  0
 14 27  1  0
 15 28  1  0
 17 16  1  0
 16 29  1  1
 17 21  1  0
 17 24  1  1
 18 19  2  0
 18 24  1  0
 19 25  1  0
 21 30  1  6
 24 26  1  0
 25 26  2  0
M  END
$$$$
