
     RDKit          3D

 31 34  0  0  0  0  0  0  0  0999 V2000
  -13.5040    8.6789    0.0397 C   0  0  0  0  0  0  0  0  0  0  0  0
  -12.9760    9.1614    1.2177 C   0  0  0  0  0  0  0  0  0  0  0  0
  -11.5981    9.2325    1.4260 C   0  0  0  0  0  0  0  0  0  0  0  0
  -10.7148    8.8147    0.4417 C   0  0  0  0  0  0  0  0  0  0  0  0
  -11.2405    8.3324   -0.7357 C   0  0  0  0  0  0  0  0  0  0  0  0
  -26.9773    8.4183   -3.7471 C   0  0  0  0  0  0  0  0  0  0  0  0
  -25.6438    8.6947   -3.1783 C   0  0  0  0  0  0  0  0  0  0  0  0
  -24.6784    7.7395   -3.1157 C   0  0  0  0  0  0  0  0  0  0  0  0
  -23.4336    8.0066   -2.5822 C   0  0  0  0  0  0  0  0  0  0  0  0
  -25.3279    9.9526   -2.6834 C   0  0  0  0  0  0  0  0  0  0  0  0
  -24.0853   10.2227   -2.1500 C   0  0  0  0  0  0  0  0  0  0  0  0
  -23.1105    9.2520   -2.0886 C   0  0  0  0  0  0  0  0  0  0  0  0
  -20.4316    8.1353   -1.5706 C   0  0  1  0  0  0  0  0  0  0  0  0
  -19.7434    6.2779   -0.5292 C   0  0  2  0  0  0  0  0  0  0  0  0
  -19.5878    5.6143    0.8244 C   0  0  0  0  0  0  0  0  0  0  0  0
  -18.4887    6.2332   -1.3526 C   0  0  1  0  0  0  0  0  0  0  0  0
  -18.0179    7.5477   -1.8704 C   0  0  1  0  0  0  0  0  0  0  0  0
  -15.6254    7.9160   -1.1684 C   0  0  0  0  0  0  0  0  0  0  0  0
  -14.9433    8.6019   -0.1858 C   0  0  0  0  0  0  0  0  0  0  0  0
  -12.6106    8.2669   -0.9301 C   0  0  0  0  0  0  0  0  0  0  0  0
  -19.0753    8.5833   -2.0616 C   0  0  1  0  0  0  0  0  0  0  0  0
  -11.0904    9.7080    2.5853 F   0  0  0  0  0  0  0  0  0  0  0  0
   -9.3769    8.8979    0.6786 F   0  0  0  0  0  0  0  0  0  0  0  0
  -16.9484    8.1052   -1.0260 N   0  0  0  0  0  0  0  0  0  0  0  0
  -15.9088    9.1982    0.5359 N   0  0  0  0  0  0  0  0  0  0  0  0
  -17.0920    8.8934    0.0245 N   0  0  0  0  0  0  0  0  0  0  0  0
  -20.2219    7.5688   -0.3068 O   0  0  0  0  0  0  0  0  0  0  0  0
  -20.5963    4.7193    1.1139 O   0  0  0  0  0  0  0  0  0  0  0  0
  -17.4328    5.6189   -0.6834 O   0  0  0  0  0  0  0  0  0  0  0  0
  -19.2301    8.9702   -3.3985 O   0  0  0  0  0  0  0  0  0  0  0  0
  -21.4987    9.5930   -1.4000 S   0  0  0  0  0  0  0  0  0  0  0  0
  1  2  2  0
 19  1  1  0
  1 20  1  0
  2  3  1  0
  3  4  2  0
  3 22  1  0
  5  4  1  0
  4 23  1  0
 20  5  2  0
  7  6  1  0
  8  7  2  0
 10  7  1  0
  9  8  1  0
 12  9  2  0
 11 10  2  0
 12 11  1  0
 31 12  1  0
 21 13  1  0
 13 27  1  0
 13 31  1  1
 14 15  1  1
 16 14  1  0
 14 27  1  0
 15 28  1  0
 17 16  1  0
 16 29  1  1
 17 21  1  0
 17 24  1  1
 18 19  2  0
 18 24  1  0
 19 25  1  0
 21 30  1  6
 24 26  1  0
 25 26  2  0
M  END
$$$$
