
     RDKit          3D

 31 34  0  0  0  0  0  0  0  0999 V2000
  -13.4751    8.7572    0.5016 C   0  0  0  0  0  0  0  0  0  0  0  0
  -12.4771    8.2030   -0.2704 C   0  0  0  0  0  0  0  0  0  0  0  0
  -11.1405    8.2360    0.1291 C   0  0  0  0  0  0  0  0  0  0  0  0
  -10.7783    8.8342    1.3268 C   0  0  0  0  0  0  0  0  0  0  0  0
  -11.7739    9.3885    2.0993 C   0  0  0  0  0  0  0  0  0  0  0  0
  -26.7693    7.9892   -3.9133 C   0  0  0  0  0  0  0  0  0  0  0  0
  -25.4249    8.3724   -3.4399 C   0  0  0  0  0  0  0  0  0  0  0  0
  -24.4369    7.4548   -3.2661 C   0  0  0  0  0  0  0  0  0  0  0  0
  -23.1821    7.8219   -2.8233 C   0  0  0  0  0  0  0  0  0  0  0  0
  -25.1217    9.6964   -3.1539 C   0  0  0  0  0  0  0  0  0  0  0  0
  -23.8691   10.0664   -2.7113 C   0  0  0  0  0  0  0  0  0  0  0  0
  -22.8713    9.1336   -2.5367 C   0  0  0  0  0  0  0  0  0  0  0  0
  -20.2351    8.1229   -1.6881 C   0  0  1  0  0  0  0  0  0  0  0  0
  -19.7151    6.5558   -0.1774 C   0  0  2  0  0  0  0  0  0  0  0  0
  -19.6974    6.2351    1.3036 C   0  0  0  0  0  0  0  0  0  0  0  0
  -18.4021    6.2836   -0.8527 C   0  0  1  0  0  0  0  0  0  0  0  0
  -17.8337    7.4226   -1.6257 C   0  0  1  0  0  0  0  0  0  0  0  0
  -15.5157    7.8091   -0.7144 C   0  0  0  0  0  0  0  0  0  0  0  0
  -14.8748    8.7263    0.0912 C   0  0  0  0  0  0  0  0  0  0  0  0
  -13.0974    9.3491    1.6914 C   0  0  0  0  0  0  0  0  0  0  0  0
  -18.8255    8.4065   -2.1506 C   0  0  1  0  0  0  0  0  0  0  0  0
  -10.1691    7.6887   -0.6356 F   0  0  0  0  0  0  0  0  0  0  0  0
   -9.4652    8.8487    1.6854 F   0  0  0  0  0  0  0  0  0  0  0  0
  -16.8111    8.1417   -0.8479 N   0  0  0  0  0  0  0  0  0  0  0  0
  -15.8358    9.6059    0.4248 N   0  0  0  0  0  0  0  0  0  0  0  0
  -16.9780    9.2448   -0.1402 N   0  0  0  0  0  0  0  0  0  0  0  0
  -20.1521    7.8733   -0.3123 O   0  0  0  0  0  0  0  0  0  0  0  0
  -20.7532    5.4435    1.7045 O   0  0  0  0  0  0  0  0  0  0  0  0
  -17.4311    5.8240    0.0338 O   0  0  0  0  0  0  0  0  0  0  0  0
  -18.8560    8.4628   -3.5494 O   0  0  0  0  0  0  0  0  0  0  0  0
  -21.2466    9.6038   -1.9646 S   0  0  0  0  0  0  0  0  0  0  0  0
  1  2  2  0
 19  1  1  0
  1 20  1  0
  2  3  1  0
  3  4  2  0
  3 22  1  0
  5  4  1  0
  4 23  1  0
 20  5  2  0
  7  6  1  0
  8  7  2  0
 10  7  1  0
  9  8  1  0
 12  9  2  0
 11 10  2  0
 12 11  1  0
 31 12  1  0
 21 13  1  0
 13 27  1  0
 13 31  1  1
 14 15  1  1
 16 14  1  0
 14 27  1  0
 15 28  1  0
 17 16  1  0
 16 29  1  1
 17 21  1  0
 17 24  1  1
 18 19  2  0
 18 24  1  0
 19 25  1  0
 21 30  1  6
 24 26  1  0
 25 26  2  0
M  END
$$$$
