
     RDKit          3D

 31 34  0  0  0  0  0  0  0  0999 V2000
  -13.5204    8.6510    0.2896 C   0  0  0  0  0  0  0  0  0  0  0  0
  -12.9530    8.9450    1.5106 C   0  0  0  0  0  0  0  0  0  0  0  0
  -11.5749    9.1101    1.6553 C   0  0  0  0  0  0  0  0  0  0  0  0
  -10.7317    8.9810    0.5618 C   0  0  0  0  0  0  0  0  0  0  0  0
  -11.2968    8.6872   -0.6588 C   0  0  0  0  0  0  0  0  0  0  0  0
  -27.2936    8.5097   -2.1769 C   0  0  0  0  0  0  0  0  0  0  0  0
  -25.8821    8.7853   -1.8452 C   0  0  0  0  0  0  0  0  0  0  0  0
  -24.8585    8.2011   -2.5231 C   0  0  0  0  0  0  0  0  0  0  0  0
  -23.5411    8.4647   -2.2065 C   0  0  0  0  0  0  0  0  0  0  0  0
  -25.5496    9.6596   -0.8196 C   0  0  0  0  0  0  0  0  0  0  0  0
  -24.2345    9.9251   -0.5008 C   0  0  0  0  0  0  0  0  0  0  0  0
  -23.2009    9.3311   -1.1901 C   0  0  0  0  0  0  0  0  0  0  0  0
  -20.4603    8.2452   -1.2237 C   0  0  1  0  0  0  0  0  0  0  0  0
  -19.8087    6.2160   -0.5407 C   0  0  2  0  0  0  0  0  0  0  0  0
  -19.6630    5.3152    0.6692 C   0  0  0  0  0  0  0  0  0  0  0  0
  -18.5580    6.2955   -1.3674 C   0  0  1  0  0  0  0  0  0  0  0  0
  -18.0607    7.6722   -1.6420 C   0  0  1  0  0  0  0  0  0  0  0  0
  -15.6605    8.0773   -0.9881 C   0  0  0  0  0  0  0  0  0  0  0  0
  -14.9601    8.4775    0.1301 C   0  0  0  0  0  0  0  0  0  0  0  0
  -12.6666    8.5258   -0.7892 C   0  0  0  0  0  0  0  0  0  0  0  0
  -19.0963    8.7468   -1.6351 C   0  0  1  0  0  0  0  0  0  0  0  0
  -11.0283    9.3989    2.8577 F   0  0  0  0  0  0  0  0  0  0  0  0
   -9.3924    9.1482    0.7390 F   0  0  0  0  0  0  0  0  0  0  0  0
  -16.9767    8.0454   -0.7182 N   0  0  0  0  0  0  0  0  0  0  0  0
  -15.9080    8.6787    1.0627 N   0  0  0  0  0  0  0  0  0  0  0  0
  -17.0983    8.4180    0.5435 N   0  0  0  0  0  0  0  0  0  0  0  0
  -20.2587    7.4548   -0.0849 O   0  0  0  0  0  0  0  0  0  0  0  0
  -20.6537    4.3602    0.7625 O   0  0  0  0  0  0  0  0  0  0  0  0
  -17.5133    5.5487   -0.8280 O   0  0  0  0  0  0  0  0  0  0  0  0
  -19.2470    9.3725   -2.8787 O   0  0  0  0  0  0  0  0  0  0  0  0
  -21.4952    9.6694   -0.7845 S   0  0  0  0  0  0  0  0  0  0  0  0
  1  2  2  0
 19  1  1  0
  1 20  1  0
  2  3  1  0
  3  4  2  0
  3 22  1  0
  5  4  1  0
  4 23  1  0
 20  5  2  0
  7  6  1  0
  8  7  2  0
 10  7  1  0
  9  8  1  0
 12  9  2  0
 11 10  2  0
 12 11  1  0
 31 12  1  0
 21 13  1  0
 13 27  1  0
 13 31  1  1
 14 15  1  1
 16 14  1  0
 14 27  1  0
 15 28  1  0
 17 16  1  0
 16 29  1  1
 17 21  1  0
 17 24  1  1
 18 19  2  0
 18 24  1  0
 19 25  1  0
 21 30  1  6
 24 26  1  0
 25 26  2  0
M  END
$$$$
