
     RDKit          3D

 31 34  0  0  0  0  0  0  0  0999 V2000
  -13.4571    8.4455    0.2543 C   0  0  0  0  0  0  0  0  0  0  0  0
  -12.9627    9.0921    1.3664 C   0  0  0  0  0  0  0  0  0  0  0  0
  -11.5926    9.1636    1.6214 C   0  0  0  0  0  0  0  0  0  0  0  0
  -10.6833    8.5791    0.7525 C   0  0  0  0  0  0  0  0  0  0  0  0
  -11.1754    7.9327   -0.3590 C   0  0  0  0  0  0  0  0  0  0  0  0
  -26.8803    8.2554   -3.7753 C   0  0  0  0  0  0  0  0  0  0  0  0
  -25.5371    8.5506   -3.2397 C   0  0  0  0  0  0  0  0  0  0  0  0
  -25.2930    8.6021   -1.9032 C   0  0  0  0  0  0  0  0  0  0  0  0
  -24.0335    8.8786   -1.4107 C   0  0  0  0  0  0  0  0  0  0  0  0
  -24.4672    8.7874   -4.0919 C   0  0  0  0  0  0  0  0  0  0  0  0
  -23.2077    9.0638   -3.6031 C   0  0  0  0  0  0  0  0  0  0  0  0
  -22.9651    9.1150   -2.2486 C   0  0  0  0  0  0  0  0  0  0  0  0
  -20.3095    7.9774   -1.6611 C   0  0  1  0  0  0  0  0  0  0  0  0
  -19.7371    6.1448   -0.5112 C   0  0  2  0  0  0  0  0  0  0  0  0
  -19.6751    5.5332    0.8740 C   0  0  0  0  0  0  0  0  0  0  0  0
  -18.4423    6.0294   -1.2623 C   0  0  1  0  0  0  0  0  0  0  0  0
  -17.9030    7.3070   -1.8051 C   0  0  1  0  0  0  0  0  0  0  0  0
  -15.5359    7.6786   -1.0234 C   0  0  0  0  0  0  0  0  0  0  0  0
  -14.8879    8.3669   -0.0196 C   0  0  0  0  0  0  0  0  0  0  0  0
  -12.5380    7.8688   -0.6009 C   0  0  0  0  0  0  0  0  0  0  0  0
  -18.9154    8.3646   -2.0946 C   0  0  1  0  0  0  0  0  0  0  0  0
  -11.1180    9.8009    2.7152 F   0  0  0  0  0  0  0  0  0  0  0  0
   -9.3540    8.6678    1.0322 F   0  0  0  0  0  0  0  0  0  0  0  0
  -16.8630    7.8670   -0.9261 N   0  0  0  0  0  0  0  0  0  0  0  0
  -15.8777    8.9638    0.6679 N   0  0  0  0  0  0  0  0  0  0  0  0
  -17.0427    8.6571    0.1174 N   0  0  0  0  0  0  0  0  0  0  0  0
  -20.1857    7.4574   -0.3664 O   0  0  0  0  0  0  0  0  0  0  0  0
  -20.8819    5.0181    1.2989 O   0  0  0  0  0  0  0  0  0  0  0  0
  -17.4436    5.4123   -0.5127 O   0  0  0  0  0  0  0  0  0  0  0  0
  -18.9862    8.7006   -3.4521 O   0  0  0  0  0  0  0  0  0  0  0  0
  -21.3375    9.4717   -1.6069 S   0  0  0  0  0  0  0  0  0  0  0  0
  1  2  2  0
 19  1  1  0
  1 20  1  0
  2  3  1  0
  3  4  2  0
  3 22  1  0
  5  4  1  0
  4 23  1  0
 20  5  2  0
  7  6  1  0
  8  7  2  0
 10  7  1  0
  9  8  1  0
 12  9  2  0
 11 10  2  0
 12 11  1  0
 31 12  1  0
 21 13  1  0
 13 27  1  0
 13 31  1  1
 14 15  1  1
 16 14  1  0
 14 27  1  0
 15 28  1  0
 17 16  1  0
 16 29  1  1
 17 21  1  0
 17 24  1  1
 18 19  2  0
 18 24  1  0
 19 25  1  0
 21 30  1  6
 24 26  1  0
 25 26  2  0
M  END
$$$$
