
     RDKit          3D

 31 34  0  0  0  0  0  0  0  0999 V2000
  -13.6441    9.3100    0.3125 C   0  0  0  0  0  0  0  0  0  0  0  0
  -13.0843    8.2403    0.9771 C   0  0  0  0  0  0  0  0  0  0  0  0
  -11.7758    8.2835    1.4599 C   0  0  0  0  0  0  0  0  0  0  0  0
  -10.9965    9.4167    1.2814 C   0  0  0  0  0  0  0  0  0  0  0  0
  -11.5540   10.4863    0.6176 C   0  0  0  0  0  0  0  0  0  0  0  0
  -27.1278    7.7078   -3.1041 C   0  0  0  0  0  0  0  0  0  0  0  0
  -25.7646    8.1936   -2.8143 C   0  0  0  0  0  0  0  0  0  0  0  0
  -24.6729    7.3963   -2.9591 C   0  0  0  0  0  0  0  0  0  0  0  0
  -23.4013    7.8587   -2.6861 C   0  0  0  0  0  0  0  0  0  0  0  0
  -25.5498    9.4944   -2.3800 C   0  0  0  0  0  0  0  0  0  0  0  0
  -24.2808    9.9595   -2.1064 C   0  0  0  0  0  0  0  0  0  0  0  0
  -23.1779    9.1484   -2.2545 C   0  0  0  0  0  0  0  0  0  0  0  0
  -20.4240    8.3417   -1.5785 C   0  0  1  0  0  0  0  0  0  0  0  0
  -19.6893    6.9632    0.0241 C   0  0  2  0  0  0  0  0  0  0  0  0
  -19.5207    6.7991    1.5212 C   0  0  0  0  0  0  0  0  0  0  0  0
  -18.4308    6.6774   -0.7432 C   0  0  1  0  0  0  0  0  0  0  0  0
  -17.9941    7.7527   -1.6764 C   0  0  1  0  0  0  0  0  0  0  0  0
  -15.7048    8.2051   -0.7239 C   0  0  0  0  0  0  0  0  0  0  0  0
  -15.0115    9.2729   -0.1947 C   0  0  0  0  0  0  0  0  0  0  0  0
  -12.8545   10.4309    0.1431 C   0  0  0  0  0  0  0  0  0  0  0  0
  -19.0786    8.6344   -2.1994 C   0  0  1  0  0  0  0  0  0  0  0  0
  -11.2363    7.2286    2.1111 F   0  0  0  0  0  0  0  0  0  0  0  0
   -9.7240    9.4243    1.7650 F   0  0  0  0  0  0  0  0  0  0  0  0
  -16.9433    8.5908   -1.0753 N   0  0  0  0  0  0  0  0  0  0  0  0
  -15.8833   10.2955   -0.2475 N   0  0  0  0  0  0  0  0  0  0  0  0
  -17.0242    9.8742   -0.7723 N   0  0  0  0  0  0  0  0  0  0  0  0
  -20.2037    8.2401   -0.1989 O   0  0  0  0  0  0  0  0  0  0  0  0
  -20.4380    5.9362    2.0835 O   0  0  0  0  0  0  0  0  0  0  0  0
  -17.3611    6.3534    0.0878 O   0  0  0  0  0  0  0  0  0  0  0  0
  -19.2389    8.5438   -3.5875 O   0  0  0  0  0  0  0  0  0  0  0  0
  -21.5311    9.7423   -1.9031 S   0  0  0  0  0  0  0  0  0  0  0  0
  1  2  2  0
 19  1  1  0
  1 20  1  0
  2  3  1  0
  3  4  2  0
  3 22  1  0
  5  4  1  0
  4 23  1  0
 20  5  2  0
  7  6  1  0
  8  7  2  0
 10  7  1  0
  9  8  1  0
 12  9  2  0
 11 10  2  0
 12 11  1  0
 31 12  1  0
 21 13  1  0
 13 27  1  0
 13 31  1  1
 14 15  1  1
 16 14  1  0
 14 27  1  0
 15 28  1  0
 17 16  1  0
 16 29  1  1
 17 21  1  0
 17 24  1  1
 18 19  2  0
 18 24  1  0
 19 25  1  0
 21 30  1  6
 24 26  1  0
 25 26  2  0
M  END
$$$$
