
     RDKit          3D

 31 34  0  0  0  0  0  0  0  0999 V2000
  -13.6815    8.9680   -0.5642 C   0  0  0  0  0  0  0  0  0  0  0  0
  -12.8583    7.9631   -1.0243 C   0  0  0  0  0  0  0  0  0  0  0  0
  -11.4685    8.0841   -0.9911 C   0  0  0  0  0  0  0  0  0  0  0  0
  -10.8736    9.2317   -0.4885 C   0  0  0  0  0  0  0  0  0  0  0  0
  -11.6944   10.2367   -0.0285 C   0  0  0  0  0  0  0  0  0  0  0  0
  -27.4867    8.3541   -2.7185 C   0  0  0  0  0  0  0  0  0  0  0  0
  -26.1144    8.6683   -2.2754 C   0  0  0  0  0  0  0  0  0  0  0  0
  -25.8688    9.5561   -1.2755 C   0  0  0  0  0  0  0  0  0  0  0  0
  -24.5821    9.8439   -0.8670 C   0  0  0  0  0  0  0  0  0  0  0  0
  -25.0175    8.0609   -2.8711 C   0  0  0  0  0  0  0  0  0  0  0  0
  -23.7308    8.3462   -2.4654 C   0  0  0  0  0  0  0  0  0  0  0  0
  -23.4868    9.2461   -1.4521 C   0  0  0  0  0  0  0  0  0  0  0  0
  -20.7428    8.1945   -1.2161 C   0  0  1  0  0  0  0  0  0  0  0  0
  -19.8586    6.3771   -0.2550 C   0  0  2  0  0  0  0  0  0  0  0  0
  -19.4986    5.7418    1.0729 C   0  0  0  0  0  0  0  0  0  0  0  0
  -18.7267    6.3573   -1.2412 C   0  0  1  0  0  0  0  0  0  0  0  0
  -18.3742    7.6768   -1.8350 C   0  0  1  0  0  0  0  0  0  0  0  0
  -15.9213    8.1228   -1.4644 C   0  0  0  0  0  0  0  0  0  0  0  0
  -15.1352    8.8489   -0.5950 C   0  0  0  0  0  0  0  0  0  0  0  0
  -13.0729   10.1042   -0.0669 C   0  0  0  0  0  0  0  0  0  0  0  0
  -19.4813    8.6758   -1.8932 C   0  0  1  0  0  0  0  0  0  0  0  0
  -10.6699    7.0920   -1.4445 F   0  0  0  0  0  0  0  0  0  0  0  0
   -9.5150    9.3162   -0.4713 F   0  0  0  0  0  0  0  0  0  0  0  0
  -17.2187    8.2814   -1.1515 N   0  0  0  0  0  0  0  0  0  0  0  0
  -16.0135    9.4373    0.2363 N   0  0  0  0  0  0  0  0  0  0  0  0
  -17.2447    9.0903   -0.1073 N   0  0  0  0  0  0  0  0  0  0  0  0
  -20.3447    7.6562    0.0143 O   0  0  0  0  0  0  0  0  0  0  0  0
  -20.3611    4.7331    1.4482 O   0  0  0  0  0  0  0  0  0  0  0  0
  -17.5700    5.7875   -0.7147 O   0  0  0  0  0  0  0  0  0  0  0  0
  -19.8290    9.0350   -3.2012 O   0  0  0  0  0  0  0  0  0  0  0  0
  -21.8242    9.6212   -0.9200 S   0  0  0  0  0  0  0  0  0  0  0  0
  1  2  2  0
 19  1  1  0
  1 20  1  0
  2  3  1  0
  3  4  2  0
  3 22  1  0
  5  4  1  0
  4 23  1  0
 20  5  2  0
  7  6  1  0
  8  7  2  0
 10  7  1  0
  9  8  1  0
 12  9  2  0
 11 10  2  0
 12 11  1  0
 31 12  1  0
 21 13  1  0
 13 27  1  0
 13 31  1  1
 14 15  1  1
 16 14  1  0
 14 27  1  0
 15 28  1  0
 17 16  1  0
 16 29  1  1
 17 21  1  0
 17 24  1  1
 18 19  2  0
 18 24  1  0
 19 25  1  0
 21 30  1  6
 24 26  1  0
 25 26  2  0
M  END
$$$$
