
     RDKit          3D

 31 34  0  0  0  0  0  0  0  0999 V2000
  -13.5854    9.2372    0.0650 C   0  0  0  0  0  0  0  0  0  0  0  0
  -12.9331   10.3983    0.4198 C   0  0  0  0  0  0  0  0  0  0  0  0
  -11.5595   10.4193    0.6646 C   0  0  0  0  0  0  0  0  0  0  0  0
  -10.8072    9.2592    0.5558 C   0  0  0  0  0  0  0  0  0  0  0  0
  -11.4571    8.0985    0.2015 C   0  0  0  0  0  0  0  0  0  0  0  0
  -27.2422    8.4538   -3.0356 C   0  0  0  0  0  0  0  0  0  0  0  0
  -25.8801    8.8292   -2.6093 C   0  0  0  0  0  0  0  0  0  0  0  0
  -25.2801    8.2520   -1.5344 C   0  0  0  0  0  0  0  0  0  0  0  0
  -24.0055    8.6088   -1.1426 C   0  0  0  0  0  0  0  0  0  0  0  0
  -25.1587    9.7939   -3.2992 C   0  0  0  0  0  0  0  0  0  0  0  0
  -23.8852   10.1525   -2.9104 C   0  0  0  0  0  0  0  0  0  0  0  0
  -23.2815    9.5652   -1.8210 C   0  0  0  0  0  0  0  0  0  0  0  0
  -20.5385    8.5774   -1.3829 C   0  0  1  0  0  0  0  0  0  0  0  0
  -19.7664    6.8446   -0.1956 C   0  0  2  0  0  0  0  0  0  0  0  0
  -19.5429    6.3196    1.2084 C   0  0  0  0  0  0  0  0  0  0  0  0
  -18.5438    6.7449   -1.0612 C   0  0  1  0  0  0  0  0  0  0  0  0
  -18.1248    8.0118   -1.7225 C   0  0  1  0  0  0  0  0  0  0  0  0
  -15.7285    8.3678   -1.0272 C   0  0  0  0  0  0  0  0  0  0  0  0
  -15.0210    9.2072   -0.1930 C   0  0  0  0  0  0  0  0  0  0  0  0
  -12.8215    8.0909   -0.0389 C   0  0  0  0  0  0  0  0  0  0  0  0
  -19.2133    9.0024   -1.9698 C   0  0  1  0  0  0  0  0  0  0  0  0
  -10.9292   11.5639    1.0116 F   0  0  0  0  0  0  0  0  0  0  0  0
   -9.4695    9.3159    0.8019 F   0  0  0  0  0  0  0  0  0  0  0  0
  -17.0371    8.6704   -0.9803 N   0  0  0  0  0  0  0  0  0  0  0  0
  -15.9568   10.0104    0.3434 N   0  0  0  0  0  0  0  0  0  0  0  0
  -17.1470    9.6788   -0.1338 N   0  0  0  0  0  0  0  0  0  0  0  0
  -20.2668    8.1412   -0.0798 O   0  0  0  0  0  0  0  0  0  0  0  0
  -20.3196    5.2209    1.5115 O   0  0  0  0  0  0  0  0  0  0  0  0
  -17.4485    6.2202   -0.3794 O   0  0  0  0  0  0  0  0  0  0  0  0
  -19.4287    9.2538   -3.3303 O   0  0  0  0  0  0  0  0  0  0  0  0
  -21.6327   10.0231   -1.3108 S   0  0  0  0  0  0  0  0  0  0  0  0
  1  2  2  0
 19  1  1  0
  1 20  1  0
  2  3  1  0
  3  4  2  0
  3 22  1  0
  5  4  1  0
  4 23  1  0
 20  5  2  0
  7  6  1  0
  8  7  2  0
 10  7  1  0
  9  8  1  0
 12  9  2  0
 11 10  2  0
 12 11  1  0
 31 12  1  0
 21 13  1  0
 13 27  1  0
 13 31  1  1
 14 15  1  1
 16 14  1  0
 14 27  1  0
 15 28  1  0
 17 16  1  0
 16 29  1  1
 17 21  1  0
 17 24  1  1
 18 19  2  0
 18 24  1  0
 19 25  1  0
 21 30  1  6
 24 26  1  0
 25 26  2  0
M  END
$$$$
