
     RDKit          3D

 31 34  0  0  0  0  0  0  0  0999 V2000
  -13.6805    8.7232    0.1795 C   0  0  0  0  0  0  0  0  0  0  0  0
  -13.2020    9.1504    1.3993 C   0  0  0  0  0  0  0  0  0  0  0  0
  -11.8370    9.1509    1.6893 C   0  0  0  0  0  0  0  0  0  0  0  0
  -10.9168    8.7167    0.7469 C   0  0  0  0  0  0  0  0  0  0  0  0
  -11.3931    8.2896   -0.4721 C   0  0  0  0  0  0  0  0  0  0  0  0
  -27.2168    8.5065   -3.5212 C   0  0  0  0  0  0  0  0  0  0  0  0
  -25.8465    8.8388   -3.0852 C   0  0  0  0  0  0  0  0  0  0  0  0
  -25.4400   10.1248   -2.9140 C   0  0  0  0  0  0  0  0  0  0  0  0
  -24.1565   10.4267   -2.5056 C   0  0  0  0  0  0  0  0  0  0  0  0
  -24.9178    7.8385   -2.8324 C   0  0  0  0  0  0  0  0  0  0  0  0
  -23.6348    8.1368   -2.4242 C   0  0  0  0  0  0  0  0  0  0  0  0
  -23.2274    9.4409   -2.2522 C   0  0  0  0  0  0  0  0  0  0  0  0
  -20.5592    8.3291   -1.6726 C   0  0  1  0  0  0  0  0  0  0  0  0
  -19.9805    6.5942   -0.3828 C   0  0  2  0  0  0  0  0  0  0  0  0
  -19.8924    6.1027    1.0480 C   0  0  0  0  0  0  0  0  0  0  0  0
  -18.7053    6.3974   -1.1506 C   0  0  1  0  0  0  0  0  0  0  0  0
  -18.1647    7.6166   -1.8133 C   0  0  1  0  0  0  0  0  0  0  0  0
  -15.7916    7.9185   -1.0193 C   0  0  0  0  0  0  0  0  0  0  0  0
  -15.1059    8.7200   -0.1315 C   0  0  0  0  0  0  0  0  0  0  0  0
  -12.7508    8.2940   -0.7478 C   0  0  0  0  0  0  0  0  0  0  0  0
  -19.1715    8.6590   -2.1694 C   0  0  1  0  0  0  0  0  0  0  0  0
  -11.3780    9.5726    2.8891 F   0  0  0  0  0  0  0  0  0  0  0  0
   -9.5930    8.7305    1.0635 F   0  0  0  0  0  0  0  0  0  0  0  0
  -17.0976    8.2358   -1.0097 N   0  0  0  0  0  0  0  0  0  0  0  0
  -16.0517    9.5162    0.3979 N   0  0  0  0  0  0  0  0  0  0  0  0
  -17.2272    9.2161   -0.1335 N   0  0  0  0  0  0  0  0  0  0  0  0
  -20.4105    7.9202   -0.3412 O   0  0  0  0  0  0  0  0  0  0  0  0
  -20.8516    5.1632    1.3635 O   0  0  0  0  0  0  0  0  0  0  0  0
  -17.6962    5.8335   -0.3738 O   0  0  0  0  0  0  0  0  0  0  0  0
  -19.2708    8.8785   -3.5488 O   0  0  0  0  0  0  0  0  0  0  0  0
  -21.5684    9.8363   -1.7235 S   0  0  0  0  0  0  0  0  0  0  0  0
  1  2  2  0
 19  1  1  0
  1 20  1  0
  2  3  1  0
  3  4  2  0
  3 22  1  0
  5  4  1  0
  4 23  1  0
 20  5  2  0
  7  6  1  0
  8  7  2  0
 10  7  1  0
  9  8  1  0
 12  9  2  0
 11 10  2  0
 12 11  1  0
 31 12  1  0
 21 13  1  0
 13 27  1  0
 13 31  1  1
 14 15  1  1
 16 14  1  0
 14 27  1  0
 15 28  1  0
 17 16  1  0
 16 29  1  1
 17 21  1  0
 17 24  1  1
 18 19  2  0
 18 24  1  0
 19 25  1  0
 21 30  1  6
 24 26  1  0
 25 26  2  0
M  END
$$$$
