
     RDKit          3D

 41 44  0  0  0  0  0  0  0  0999 V2000
   64.8818   51.4952   13.8095 C   0  0  0  0  0  0  0  0  0  0  0  0
   65.0083   51.3786   12.4266 O   0  0  0  0  0  0  0  0  0  0  0  0
   65.9818   52.3577   14.3072 C   0  0  0  0  0  0  0  0  0  0  0  0
   65.8138   53.7291   14.3994 C   0  0  0  0  0  0  0  0  0  0  0  0
   66.8258   54.5638   14.8616 C   0  0  0  0  0  0  0  0  0  0  0  0
   68.0163   54.0042   15.2330 C   0  0  0  0  0  0  0  0  0  0  0  0
   68.1703   52.6358   15.1359 C   0  0  0  0  0  0  0  0  0  0  0  0
   67.1893   51.8082   14.6857 C   0  0  0  0  0  0  0  0  0  0  0  0
   73.4754   62.5156   19.2358 O   0  0  0  0  0  0  0  0  0  0  0  0
   69.3707   54.9764   15.8414 S   0  0  1  0  0  6  0  0  0  0  0  0
   68.7154   56.2520   16.3422 O   0  0  0  0  0  0  0  0  0  0  0  0
   69.9634   54.2515   16.9970 O   0  0  0  0  0  0  0  0  0  0  0  0
   70.4899   55.2627   14.5713 N   0  0  0  0  0  0  0  0  0  0  0  0
   71.0933   54.0463   14.1601 C   0  0  0  0  0  0  0  0  0  0  0  0
   72.5593   53.9215   14.3536 C   0  0  2  0  0  0  0  0  0  0  0  0
   73.1360   52.6185   13.9460 C   0  0  0  0  0  0  0  0  0  0  0  0
   72.8678   54.2907   15.7894 C   0  0  0  0  0  0  0  0  0  0  0  0
   71.3956   56.3563   14.8207 C   0  0  0  0  0  0  0  0  0  0  0  0
   70.7066   57.6482   15.0875 C   0  0  1  0  0  0  0  0  0  0  0  0
   74.3304   54.2990   16.0820 C   0  0  0  0  0  0  0  0  0  0  0  0
   69.3888   57.6247   14.6367 O   0  0  0  0  0  0  0  0  0  0  0  0
   70.7992   58.1497   16.4937 C   0  0  1  0  0  0  0  0  0  0  0  0
   72.7486   52.2176   12.5379 C   0  0  0  0  0  0  0  0  0  0  0  0
   72.1761   58.4008   16.8793 N   0  0  0  0  0  0  0  0  0  0  0  0
   72.5758   58.8164   18.1763 C   0  0  0  0  0  0  0  0  0  0  0  0
   71.9168   58.3941   19.1874 O   0  0  0  0  0  0  0  0  0  0  0  0
   73.6394   59.6556   18.4296 O   0  0  0  0  0  0  0  0  0  0  0  0
   74.1302   59.8127   19.7551 C   0  0  1  0  0  0  0  0  0  0  0  0
   75.4341   60.5474   19.7941 C   0  0  0  0  0  0  0  0  0  0  0  0
   75.2553   61.7212   20.4881 O   0  0  0  0  0  0  0  0  0  0  0  0
   73.9238   62.0562   20.4735 C   0  0  2  0  0  0  0  0  0  0  0  0
   72.0815   62.4109   19.4092 C   0  0  0  0  0  0  0  0  0  0  0  0
   71.9079   60.9746   19.9192 C   0  0  0  0  0  0  0  0  0  0  0  0
   73.2297   60.7166   20.5675 C   0  0  1  0  0  0  0  0  0  0  0  0
   70.0328   59.3878   16.7876 C   0  0  0  0  0  0  0  0  0  0  0  0
   69.4269   58.4157   19.0087 C   0  0  0  0  0  0  0  0  0  0  0  0
   69.0396   58.4748   20.3097 C   0  0  0  0  0  0  0  0  0  0  0  0
   68.8105   59.6960   20.8856 C   0  0  0  0  0  0  0  0  0  0  0  0
   68.9746   60.8329   20.1437 C   0  0  0  0  0  0  0  0  0  0  0  0
   69.3727   60.7508   18.8096 C   0  0  0  0  0  0  0  0  0  0  0  0
   69.6105   59.5289   18.2051 C   0  0  0  0  0  0  0  0  0  0  0  0
  1  2  1  0
  3  1  1  0
  4  3  2  0
  8  3  1  0
  5  4  1  0
  6  5  2  0
  6  7  1  0
 10  6  1  0
  7  8  2  0
 31  9  1  6
 32  9  1  0
 10 11  2  0
 10 12  2  0
 10 13  1  6
 13 14  1  0
 18 13  1  0
 15 14  1  1
 15 16  1  0
 15 17  1  0
 16 23  1  0
 17 20  1  0
 19 18  1  0
 19 21  1  1
 22 19  1  0
 22 24  1  0
 22 35  1  6
 24 25  1  0
 25 26  2  0
 25 27  1  0
 28 27  1  6
 28 29  1  0
 28 34  1  0
 29 30  1  0
 31 30  1  0
 34 31  1  0
 33 32  1  0
 34 33  1  6
 41 35  1  0
 36 37  2  0
 36 41  1  0
 37 38  1  0
 38 39  2  0
 39 40  1  0
 40 41  2  0
M  END
$$$$
