
     RDKit          3D

 41 44  0  0  0  0  0  0  0  0999 V2000
   65.0974   51.1676   13.0724 C   0  0  0  0  0  0  0  0  0  0  0  0
   65.7734   50.4321   12.1007 O   0  0  0  0  0  0  0  0  0  0  0  0
   66.0835   52.0195   13.7821 C   0  0  0  0  0  0  0  0  0  0  0  0
   67.1125   51.4468   14.5106 C   0  0  0  0  0  0  0  0  0  0  0  0
   68.0518   52.2184   15.1866 C   0  0  0  0  0  0  0  0  0  0  0  0
   67.9472   53.5798   15.1234 C   0  0  0  0  0  0  0  0  0  0  0  0
   66.9166   54.1373   14.3937 C   0  0  0  0  0  0  0  0  0  0  0  0
   65.9915   53.3949   13.7282 C   0  0  0  0  0  0  0  0  0  0  0  0
   73.2237   62.2456   18.9100 O   0  0  0  0  0  0  0  0  0  0  0  0
   69.0949   54.6567   15.9435 S   0  0  1  0  0  6  0  0  0  0  0  0
   68.3332   55.9620   16.0972 O   0  0  0  0  0  0  0  0  0  0  0  0
   69.3605   54.0901   17.2928 O   0  0  0  0  0  0  0  0  0  0  0  0
   70.5100   54.8261   14.9861 N   0  0  0  0  0  0  0  0  0  0  0  0
   71.1932   53.5864   14.8895 C   0  0  0  0  0  0  0  0  0  0  0  0
   72.6665   53.6396   14.7196 C   0  0  2  0  0  0  0  0  0  0  0  0
   73.4246   54.0061   15.9392 C   0  0  0  0  0  0  0  0  0  0  0  0
   72.9619   54.5386   13.5374 C   0  0  0  0  0  0  0  0  0  0  0  0
   71.3248   55.9627   15.3364 C   0  0  0  0  0  0  0  0  0  0  0  0
   70.5917   57.2568   15.2843 C   0  0  1  0  0  0  0  0  0  0  0  0
   74.3613   54.3978   13.0404 C   0  0  0  0  0  0  0  0  0  0  0  0
   69.4102   57.1432   14.5552 O   0  0  0  0  0  0  0  0  0  0  0  0
   70.3628   57.9217   16.6045 C   0  0  1  0  0  0  0  0  0  0  0  0
   73.7001   52.8203   16.8401 C   0  0  0  0  0  0  0  0  0  0  0  0
   71.3352   58.9722   16.8466 N   0  0  0  0  0  0  0  0  0  0  0  0
   72.2218   58.9954   17.9548 C   0  0  0  0  0  0  0  0  0  0  0  0
   71.8070   58.5597   19.0831 O   0  0  0  0  0  0  0  0  0  0  0  0
   73.5181   59.4608   17.9027 O   0  0  0  0  0  0  0  0  0  0  0  0
   74.2709   59.6242   19.0982 C   0  0  1  0  0  0  0  0  0  0  0  0
   75.4619   60.5100   18.9023 C   0  0  0  0  0  0  0  0  0  0  0  0
   75.3138   61.6251   19.6935 O   0  0  0  0  0  0  0  0  0  0  0  0
   73.9837   61.7958   19.9890 C   0  0  2  0  0  0  0  0  0  0  0  0
   71.9234   61.9652   19.3735 C   0  0  0  0  0  0  0  0  0  0  0  0
   72.0267   60.4995   19.8141 C   0  0  0  0  0  0  0  0  0  0  0  0
   73.4797   60.3791   20.1432 C   0  0  1  0  0  0  0  0  0  0  0  0
   69.0177   58.5211   16.7991 C   0  0  0  0  0  0  0  0  0  0  0  0
   68.5528   58.4160   19.2523 C   0  0  0  0  0  0  0  0  0  0  0  0
   68.3575   58.9457   20.4882 C   0  0  0  0  0  0  0  0  0  0  0  0
   68.4212   60.3039   20.6525 C   0  0  0  0  0  0  0  0  0  0  0  0
   68.6795   61.1024   19.5729 C   0  0  0  0  0  0  0  0  0  0  0  0
   68.8770   60.5389   18.3126 C   0  0  0  0  0  0  0  0  0  0  0  0
   68.8178   59.1697   18.1209 C   0  0  0  0  0  0  0  0  0  0  0  0
  1  2  1  0
  3  1  1  0
  4  3  2  0
  8  3  1  0
  5  4  1  0
  6  5  2  0
  6  7  1  0
 10  6  1  0
  7  8  2  0
 31  9  1  6
 32  9  1  0
 10 11  2  0
 10 12  2  0
 10 13  1  6
 13 14  1  0
 18 13  1  0
 15 14  1  1
 15 16  1  0
 15 17  1  0
 16 23  1  0
 17 20  1  0
 19 18  1  0
 19 21  1  1
 22 19  1  0
 22 24  1  0
 22 35  1  6
 24 25  1  0
 25 26  2  0
 25 27  1  0
 28 27  1  6
 28 29  1  0
 28 34  1  0
 29 30  1  0
 31 30  1  0
 34 31  1  0
 33 32  1  0
 34 33  1  6
 41 35  1  0
 36 37  2  0
 36 41  1  0
 37 38  1  0
 38 39  2  0
 39 40  1  0
 40 41  2  0
M  END
$$$$
