
     RDKit          3D

 41 44  0  0  0  0  0  0  0  0999 V2000
   67.0047   51.4529   15.8341 C   0  0  0  0  0  0  0  0  0  0  0  0
   66.1922   51.0082   14.7929 O   0  0  0  0  0  0  0  0  0  0  0  0
   67.6030   52.7512   15.4365 C   0  0  0  0  0  0  0  0  0  0  0  0
   67.0513   53.4939   14.4061 C   0  0  0  0  0  0  0  0  0  0  0  0
   67.5892   54.7139   14.0102 C   0  0  0  0  0  0  0  0  0  0  0  0
   68.6938   55.1843   14.6636 C   0  0  0  0  0  0  0  0  0  0  0  0
   69.2335   54.4338   15.6888 C   0  0  0  0  0  0  0  0  0  0  0  0
   68.7178   53.2396   16.0859 C   0  0  0  0  0  0  0  0  0  0  0  0
   69.0425   62.7111   19.4775 O   0  0  0  0  0  0  0  0  0  0  0  0
   69.4559   56.7308   14.2426 S   0  0  1  0  0  6  0  0  0  0  0  0
   69.6320   56.6590   12.7355 O   0  0  0  0  0  0  0  0  0  0  0  0
   68.4886   57.8134   14.5654 O   0  0  0  0  0  0  0  0  0  0  0  0
   70.9494   56.8821   15.0760 N   0  0  0  0  0  0  0  0  0  0  0  0
   72.0046   56.3313   14.3041 C   0  0  0  0  0  0  0  0  0  0  0  0
   72.0627   54.8521   14.1993 C   0  0  2  0  0  0  0  0  0  0  0  0
   73.2264   54.3227   13.4496 C   0  0  0  0  0  0  0  0  0  0  0  0
   70.7321   54.3762   13.6551 C   0  0  0  0  0  0  0  0  0  0  0  0
   70.8990   56.4628   16.4545 C   0  0  0  0  0  0  0  0  0  0  0  0
   72.1299   56.7966   17.2215 C   0  0  1  0  0  0  0  0  0  0  0  0
   69.5681   54.9890   14.3584 C   0  0  0  0  0  0  0  0  0  0  0  0
   73.0471   55.7485   17.1928 O   0  0  0  0  0  0  0  0  0  0  0  0
   72.7728   58.1013   16.8728 C   0  0  1  0  0  0  0  0  0  0  0  0
   73.6691   52.9584   13.9360 C   0  0  0  0  0  0  0  0  0  0  0  0
   72.2685   59.1811   17.7018 N   0  0  0  0  0  0  0  0  0  0  0  0
   71.1773   59.0511   18.6003 C   0  0  0  0  0  0  0  0  0  0  0  0
   70.8596   57.8847   19.0167 O   0  0  0  0  0  0  0  0  0  0  0  0
   70.4231   60.1074   19.0642 O   0  0  0  0  0  0  0  0  0  0  0  0
   70.4364   60.4473   20.4450 C   0  0  1  0  0  0  0  0  0  0  0  0
   71.3308   61.6127   20.7340 C   0  0  0  0  0  0  0  0  0  0  0  0
   70.5635   62.6435   21.2238 O   0  0  0  0  0  0  0  0  0  0  0  0
   69.2600   62.4618   20.8320 C   0  0  2  0  0  0  0  0  0  0  0  0
   67.7861   62.0996   19.2994 C   0  0  0  0  0  0  0  0  0  0  0  0
   67.9958   60.7059   19.9049 C   0  0  0  0  0  0  0  0  0  0  0  0
   69.0867   60.9615   20.8942 C   0  0  1  0  0  0  0  0  0  0  0  0
   74.2547   58.1350   16.9690 C   0  0  0  0  0  0  0  0  0  0  0  0
   73.9174   59.2821   19.1635 C   0  0  0  0  0  0  0  0  0  0  0  0
   74.3292   59.8975   20.3027 C   0  0  0  0  0  0  0  0  0  0  0  0
   75.6702   60.0589   20.5297 C   0  0  0  0  0  0  0  0  0  0  0  0
   76.5702   59.5993   19.6084 C   0  0  0  0  0  0  0  0  0  0  0  0
   76.1269   58.9703   18.4453 C   0  0  0  0  0  0  0  0  0  0  0  0
   74.7775   58.7952   18.1932 C   0  0  0  0  0  0  0  0  0  0  0  0
  1  2  1  0
  3  1  1  0
  4  3  2  0
  8  3  1  0
  5  4  1  0
  6  5  2  0
  6  7  1  0
 10  6  1  0
  7  8  2  0
 31  9  1  6
 32  9  1  0
 10 11  2  0
 10 12  2  0
 10 13  1  1
 13 14  1  0
 18 13  1  0
 15 14  1  6
 15 16  1  0
 15 17  1  0
 16 23  1  0
 17 20  1  0
 19 18  1  0
 19 21  1  6
 22 19  1  0
 22 24  1  0
 22 35  1  1
 24 25  1  0
 25 26  2  0
 25 27  1  0
 28 27  1  6
 28 29  1  0
 28 34  1  0
 29 30  1  0
 31 30  1  0
 34 31  1  0
 33 32  1  0
 34 33  1  6
 41 35  1  0
 36 37  2  0
 36 41  1  0
 37 38  1  0
 38 39  2  0
 39 40  1  0
 40 41  2  0
M  END
$$$$
