
     RDKit          3D

 41 44  0  0  0  0  0  0  0  0999 V2000
   65.6809   50.7569   12.2300 C   0  0  0  0  0  0  0  0  0  0  0  0
   65.3195   51.3587   11.0261 O   0  0  0  0  0  0  0  0  0  0  0  0
   66.3662   51.7699   13.0701 C   0  0  0  0  0  0  0  0  0  0  0  0
   66.9423   51.4099   14.2768 C   0  0  0  0  0  0  0  0  0  0  0  0
   67.5912   52.3362   15.0864 C   0  0  0  0  0  0  0  0  0  0  0  0
   67.6566   53.6363   14.6697 C   0  0  0  0  0  0  0  0  0  0  0  0
   67.0782   53.9814   13.4647 C   0  0  0  0  0  0  0  0  0  0  0  0
   66.4407   53.0861   12.6636 C   0  0  0  0  0  0  0  0  0  0  0  0
   73.4970   62.2914   19.4700 O   0  0  0  0  0  0  0  0  0  0  0  0
   68.4652   54.8965   15.6225 S   0  0  1  0  0  6  0  0  0  0  0  0
   67.5574   56.1064   15.4825 O   0  0  0  0  0  0  0  0  0  0  0  0
   68.4683   54.4561   17.0431 O   0  0  0  0  0  0  0  0  0  0  0  0
   70.0381   55.1740   14.9928 N   0  0  0  0  0  0  0  0  0  0  0  0
   70.9554   54.2279   15.5186 C   0  0  0  0  0  0  0  0  0  0  0  0
   72.1719   53.9496   14.7156 C   0  0  2  0  0  0  0  0  0  0  0  0
   73.0165   52.8419   15.2218 C   0  0  0  0  0  0  0  0  0  0  0  0
   72.9260   55.2528   14.5545 C   0  0  0  0  0  0  0  0  0  0  0  0
   70.4600   56.5514   15.0495 C   0  0  0  0  0  0  0  0  0  0  0  0
   71.5194   56.8061   16.0633 C   0  0  1  0  0  0  0  0  0  0  0  0
   73.9112   55.2154   13.4351 C   0  0  0  0  0  0  0  0  0  0  0  0
   72.6152   57.4574   15.5015 O   0  0  0  0  0  0  0  0  0  0  0  0
   71.0620   57.4793   17.3183 C   0  0  1  0  0  0  0  0  0  0  0  0
   74.1318   52.4682   14.2677 C   0  0  0  0  0  0  0  0  0  0  0  0
   71.8322   58.6799   17.5887 N   0  0  0  0  0  0  0  0  0  0  0  0
   72.8393   58.7714   18.5847 C   0  0  0  0  0  0  0  0  0  0  0  0
   72.6926   58.1109   19.6697 O   0  0  0  0  0  0  0  0  0  0  0  0
   73.9824   59.5323   18.4659 O   0  0  0  0  0  0  0  0  0  0  0  0
   74.7992   59.7834   19.6026 C   0  0  1  0  0  0  0  0  0  0  0  0
   75.8837   60.7745   19.3145 C   0  0  0  0  0  0  0  0  0  0  0  0
   75.6869   61.8821   20.1056 O   0  0  0  0  0  0  0  0  0  0  0  0
   74.3710   61.9311   20.4948 C   0  0  2  0  0  0  0  0  0  0  0  0
   72.2654   61.8966   20.0281 C   0  0  0  0  0  0  0  0  0  0  0  0
   72.5385   60.4537   20.4716 C   0  0  0  0  0  0  0  0  0  0  0  0
   74.0161   60.4755   20.6961 C   0  0  1  0  0  0  0  0  0  0  0  0
   69.6280   57.8648   17.3564 C   0  0  0  0  0  0  0  0  0  0  0  0
   69.3862   60.1487   18.3418 C   0  0  0  0  0  0  0  0  0  0  0  0
   69.0744   61.0352   19.3231 C   0  0  0  0  0  0  0  0  0  0  0  0
   68.6096   60.5689   20.5241 C   0  0  0  0  0  0  0  0  0  0  0  0
   68.4675   59.2224   20.7153 C   0  0  0  0  0  0  0  0  0  0  0  0
   68.7932   58.3289   19.6952 C   0  0  0  0  0  0  0  0  0  0  0  0
   69.2645   58.7752   18.4730 C   0  0  0  0  0  0  0  0  0  0  0  0
  1  2  1  0
  3  1  1  0
  4  3  2  0
  8  3  1  0
  5  4  1  0
  6  5  2  0
  6  7  1  0
 10  6  1  0
  7  8  2  0
 31  9  1  6
 32  9  1  0
 10 11  2  0
 10 12  2  0
 10 13  1  6
 13 14  1  0
 18 13  1  0
 15 14  1  1
 15 16  1  0
 15 17  1  0
 16 23  1  0
 17 20  1  0
 19 18  1  0
 19 21  1  6
 22 19  1  0
 22 24  1  0
 22 35  1  6
 24 25  1  0
 25 26  2  0
 25 27  1  0
 28 27  1  6
 28 29  1  0
 28 34  1  0
 29 30  1  0
 31 30  1  0
 34 31  1  0
 33 32  1  0
 34 33  1  6
 41 35  1  0
 36 37  2  0
 36 41  1  0
 37 38  1  0
 38 39  2  0
 39 40  1  0
 40 41  2  0
M  END
$$$$
