
     RDKit          3D

 41 44  0  0  0  0  0  0  0  0999 V2000
   65.1804   51.5279   12.7177 C   0  0  0  0  0  0  0  0  0  0  0  0
   65.7032   50.2361   12.7252 O   0  0  0  0  0  0  0  0  0  0  0  0
   66.0986   52.4067   13.4834 C   0  0  0  0  0  0  0  0  0  0  0  0
   65.9010   53.7771   13.5108 C   0  0  0  0  0  0  0  0  0  0  0  0
   66.7442   54.6268   14.2189 C   0  0  0  0  0  0  0  0  0  0  0  0
   67.7948   54.0836   14.9040 C   0  0  0  0  0  0  0  0  0  0  0  0
   67.9801   52.7161   14.8681 C   0  0  0  0  0  0  0  0  0  0  0  0
   67.1635   51.8739   14.1798 C   0  0  0  0  0  0  0  0  0  0  0  0
   73.1865   62.7047   19.6267 O   0  0  0  0  0  0  0  0  0  0  0  0
   68.9272   55.0759   15.8436 S   0  0  1  0  0  6  0  0  0  0  0  0
   68.0873   56.2507   16.3146 O   0  0  0  0  0  0  0  0  0  0  0  0
   69.3511   54.2797   17.0261 O   0  0  0  0  0  0  0  0  0  0  0  0
   70.2365   55.5584   14.8432 N   0  0  0  0  0  0  0  0  0  0  0  0
   71.4683   55.1232   15.3966 C   0  0  0  0  0  0  0  0  0  0  0  0
   72.7076   55.5402   14.6950 C   0  0  2  0  0  0  0  0  0  0  0  0
   72.7014   55.3211   13.2293 C   0  0  0  0  0  0  0  0  0  0  0  0
   73.8774   54.8806   15.3948 C   0  0  0  0  0  0  0  0  0  0  0  0
   70.1880   56.9407   14.4368 C   0  0  0  0  0  0  0  0  0  0  0  0
   71.1353   57.8123   15.1838 C   0  0  1  0  0  0  0  0  0  0  0  0
   73.7207   54.8503   16.8779 C   0  0  0  0  0  0  0  0  0  0  0  0
   71.5091   58.9218   14.4289 O   0  0  0  0  0  0  0  0  0  0  0  0
   70.7022   58.2033   16.5611 C   0  0  1  0  0  0  0  0  0  0  0  0
   73.2262   53.9561   12.8355 C   0  0  0  0  0  0  0  0  0  0  0  0
   71.6626   59.0934   17.1879 N   0  0  0  0  0  0  0  0  0  0  0  0
   72.2883   58.8369   18.4360 C   0  0  0  0  0  0  0  0  0  0  0  0
   72.6186   57.6353   18.7225 O   0  0  0  0  0  0  0  0  0  0  0  0
   72.5702   59.8039   19.3767 O   0  0  0  0  0  0  0  0  0  0  0  0
   73.8990   59.9761   19.8533 C   0  0  1  0  0  0  0  0  0  0  0  0
   74.8101   60.5345   18.8047 C   0  0  0  0  0  0  0  0  0  0  0  0
   75.2646   61.7618   19.2271 O   0  0  0  0  0  0  0  0  0  0  0  0
   74.3966   62.2670   20.1635 C   0  0  2  0  0  0  0  0  0  0  0  0
   72.4022   62.7944   20.7934 C   0  0  0  0  0  0  0  0  0  0  0  0
   72.6168   61.4272   21.4551 C   0  0  0  0  0  0  0  0  0  0  0  0
   73.9605   61.0383   20.9284 C   0  0  1  0  0  0  0  0  0  0  0  0
   69.3737   58.8608   16.6561 C   0  0  0  0  0  0  0  0  0  0  0  0
   68.4567   58.3751   18.9295 C   0  0  0  0  0  0  0  0  0  0  0  0
   68.0842   58.6945   20.1966 C   0  0  0  0  0  0  0  0  0  0  0  0
   68.2360   59.9831   20.6346 C   0  0  0  0  0  0  0  0  0  0  0  0
   68.7585   60.9248   19.7918 C   0  0  0  0  0  0  0  0  0  0  0  0
   69.1347   60.5765   18.4949 C   0  0  0  0  0  0  0  0  0  0  0  0
   68.9914   59.2814   18.0289 C   0  0  0  0  0  0  0  0  0  0  0  0
  1  2  1  0
  3  1  1  0
  4  3  2  0
  8  3  1  0
  5  4  1  0
  6  5  2  0
  6  7  1  0
 10  6  1  0
  7  8  2  0
 31  9  1  6
 32  9  1  0
 10 11  2  0
 10 12  2  0
 10 13  1  6
 13 14  1  0
 18 13  1  0
 15 14  1  1
 15 16  1  0
 15 17  1  0
 16 23  1  0
 17 20  1  0
 19 18  1  0
 19 21  1  6
 22 19  1  0
 22 24  1  0
 22 35  1  6
 24 25  1  0
 25 26  2  0
 25 27  1  0
 28 27  1  6
 28 29  1  0
 28 34  1  0
 29 30  1  0
 31 30  1  0
 34 31  1  0
 33 32  1  0
 34 33  1  6
 41 35  1  0
 36 37  2  0
 36 41  1  0
 37 38  1  0
 38 39  2  0
 39 40  1  0
 40 41  2  0
M  END
$$$$
