
     RDKit          3D

 41 44  0  0  0  0  0  0  0  0999 V2000
   73.5983   49.9715   13.7131 C   0  0  0  0  0  0  0  0  0  0  0  0
   72.5209   49.2673   13.1789 O   0  0  0  0  0  0  0  0  0  0  0  0
   73.0778   51.2050   14.3529 C   0  0  0  0  0  0  0  0  0  0  0  0
   73.8357   52.3639   14.3667 C   0  0  0  0  0  0  0  0  0  0  0  0
   73.3755   53.5355   14.9585 C   0  0  0  0  0  0  0  0  0  0  0  0
   72.1386   53.5321   15.5401 C   0  0  0  0  0  0  0  0  0  0  0  0
   71.3938   52.3700   15.5191 C   0  0  0  0  0  0  0  0  0  0  0  0
   71.8315   51.2178   14.9441 C   0  0  0  0  0  0  0  0  0  0  0  0
   72.3425   59.4060   19.9341 O   0  0  0  0  0  0  0  0  0  0  0  0
   71.4538   54.9732   16.3174 S   0  0  1  0  0  6  0  0  0  0  0  0
   70.8163   54.4405   17.5891 O   0  0  0  0  0  0  0  0  0  0  0  0
   72.5835   55.8695   16.6815 O   0  0  0  0  0  0  0  0  0  0  0  0
   70.3141   55.7083   15.2645 N   0  0  0  0  0  0  0  0  0  0  0  0
   69.4318   54.7331   14.7321 C   0  0  0  0  0  0  0  0  0  0  0  0
   67.9789   54.9541   14.9377 C   0  0  2  0  0  0  0  0  0  0  0  0
   67.6265   56.2400   15.5849 C   0  0  0  0  0  0  0  0  0  0  0  0
   67.4274   53.7459   15.6651 C   0  0  0  0  0  0  0  0  0  0  0  0
   70.8974   56.6129   14.3054 C   0  0  0  0  0  0  0  0  0  0  0  0
   70.7685   58.0457   14.6866 C   0  0  1  0  0  0  0  0  0  0  0  0
   66.7187   52.7986   14.7565 C   0  0  0  0  0  0  0  0  0  0  0  0
   69.5489   58.5751   14.2708 O   0  0  0  0  0  0  0  0  0  0  0  0
   71.0435   58.3577   16.1234 C   0  0  1  0  0  0  0  0  0  0  0  0
   66.7831   56.0610   16.8301 C   0  0  0  0  0  0  0  0  0  0  0  0
   72.4407   58.6888   16.3377 N   0  0  0  0  0  0  0  0  0  0  0  0
   72.9298   59.3723   17.4816 C   0  0  0  0  0  0  0  0  0  0  0  0
   72.1062   59.6903   18.4065 O   0  0  0  0  0  0  0  0  0  0  0  0
   74.2490   59.7238   17.6712 O   0  0  0  0  0  0  0  0  0  0  0  0
   74.6146   60.5922   18.7365 C   0  0  1  0  0  0  0  0  0  0  0  0
   73.6365   61.7112   18.9176 C   0  0  0  0  0  0  0  0  0  0  0  0
   73.0638   61.5957   20.1626 O   0  0  0  0  0  0  0  0  0  0  0  0
   73.1843   60.2985   20.5966 C   0  0  2  0  0  0  0  0  0  0  0  0
   72.9338   58.1782   20.2903 C   0  0  0  0  0  0  0  0  0  0  0  0
   74.4123   58.3986   19.9458 C   0  0  0  0  0  0  0  0  0  0  0  0
   74.5389   59.8828   20.0702 C   0  0  1  0  0  0  0  0  0  0  0  0
   70.2404   59.4623   16.7077 C   0  0  0  0  0  0  0  0  0  0  0  0
   69.2053   60.2510   18.8412 C   0  0  0  0  0  0  0  0  0  0  0  0
   68.9812   60.2214   20.1810 C   0  0  0  0  0  0  0  0  0  0  0  0
   69.6064   59.2712   20.9438 C   0  0  0  0  0  0  0  0  0  0  0  0
   70.4437   58.3703   20.3461 C   0  0  0  0  0  0  0  0  0  0  0  0
   70.6603   58.4176   18.9692 C   0  0  0  0  0  0  0  0  0  0  0  0
   70.0404   59.3679   18.1770 C   0  0  0  0  0  0  0  0  0  0  0  0
  1  2  1  0
  3  1  1  0
  4  3  2  0
  8  3  1  0
  5  4  1  0
  6  5  2  0
  6  7  1  0
 10  6  1  0
  7  8  2  0
 31  9  1  6
 32  9  1  0
 10 11  2  0
 10 12  2  0
 10 13  1  6
 13 14  1  0
 18 13  1  0
 15 14  1  1
 15 16  1  0
 15 17  1  0
 16 23  1  0
 17 20  1  0
 19 18  1  0
 19 21  1  1
 22 19  1  0
 22 24  1  0
 22 35  1  6
 24 25  1  0
 25 26  2  0
 25 27  1  0
 28 27  1  6
 28 29  1  0
 28 34  1  0
 29 30  1  0
 31 30  1  0
 34 31  1  0
 33 32  1  0
 34 33  1  6
 41 35  1  0
 36 37  2  0
 36 41  1  0
 37 38  1  0
 38 39  2  0
 39 40  1  0
 40 41  2  0
M  END
$$$$
