
     RDKit          3D

 41 44  0  0  0  0  0  0  0  0999 V2000
   65.3141   51.4529   13.2092 C   0  0  0  0  0  0  0  0  0  0  0  0
   65.4308   51.7260   11.8477 O   0  0  0  0  0  0  0  0  0  0  0  0
   66.3447   52.2383   13.9322 C   0  0  0  0  0  0  0  0  0  0  0  0
   66.1445   53.5818   14.2017 C   0  0  0  0  0  0  0  0  0  0  0  0
   67.0915   54.3446   14.8770 C   0  0  0  0  0  0  0  0  0  0  0  0
   68.2491   53.7411   15.2819 C   0  0  0  0  0  0  0  0  0  0  0  0
   68.4357   52.4013   15.0067 C   0  0  0  0  0  0  0  0  0  0  0  0
   67.5183   51.6440   14.3474 C   0  0  0  0  0  0  0  0  0  0  0  0
   73.6766   62.1397   18.9407 O   0  0  0  0  0  0  0  0  0  0  0  0
   69.5199   54.6200   16.1551 S   0  0  1  0  0  6  0  0  0  0  0  0
   68.7809   55.7579   16.8382 O   0  0  0  0  0  0  0  0  0  0  0  0
   70.0682   53.7073   17.1935 O   0  0  0  0  0  0  0  0  0  0  0  0
   70.7043   55.1748   15.0427 N   0  0  0  0  0  0  0  0  0  0  0  0
   71.9450   55.3763   15.7007 C   0  0  0  0  0  0  0  0  0  0  0  0
   72.9283   54.2665   15.6409 C   0  0  2  0  0  0  0  0  0  0  0  0
   74.3445   54.6899   15.5326 C   0  0  0  0  0  0  0  0  0  0  0  0
   72.4970   53.3278   14.5338 C   0  0  0  0  0  0  0  0  0  0  0  0
   70.2599   56.2583   14.2019 C   0  0  0  0  0  0  0  0  0  0  0  0
   70.6716   57.6002   14.6964 C   0  0  1  0  0  0  0  0  0  0  0  0
   73.4186   53.3557   13.3612 C   0  0  0  0  0  0  0  0  0  0  0  0
   70.1355   58.6183   13.9111 O   0  0  0  0  0  0  0  0  0  0  0  0
   70.4415   57.8488   16.1534 C   0  0  1  0  0  0  0  0  0  0  0  0
   74.8049   55.5148   16.7164 C   0  0  0  0  0  0  0  0  0  0  0  0
   71.3236   58.8835   16.6621 N   0  0  0  0  0  0  0  0  0  0  0  0
   72.3959   58.6436   17.5607 C   0  0  0  0  0  0  0  0  0  0  0  0
   72.3438   57.6156   18.3193 O   0  0  0  0  0  0  0  0  0  0  0  0
   73.5071   59.4506   17.6770 O   0  0  0  0  0  0  0  0  0  0  0  0
   74.3221   59.3870   18.8407 C   0  0  1  0  0  0  0  0  0  0  0  0
   75.6247   60.1029   18.6613 C   0  0  0  0  0  0  0  0  0  0  0  0
   75.6779   61.1471   19.5546 O   0  0  0  0  0  0  0  0  0  0  0  0
   74.4015   61.4824   19.9339 C   0  0  2  0  0  0  0  0  0  0  0  0
   72.3680   62.0105   19.4456 C   0  0  0  0  0  0  0  0  0  0  0  0
   72.2657   60.5102   19.7489 C   0  0  0  0  0  0  0  0  0  0  0  0
   73.6955   60.1469   19.9888 C   0  0  1  0  0  0  0  0  0  0  0  0
   69.0572   58.2337   16.5302 C   0  0  0  0  0  0  0  0  0  0  0  0
   68.8138   60.1317   18.1376 C   0  0  0  0  0  0  0  0  0  0  0  0
   68.6896   60.6866   19.3717 C   0  0  0  0  0  0  0  0  0  0  0  0
   68.6660   59.8725   20.4728 C   0  0  0  0  0  0  0  0  0  0  0  0
   68.7677   58.5183   20.3126 C   0  0  0  0  0  0  0  0  0  0  0  0
   68.8945   57.9685   19.0372 C   0  0  0  0  0  0  0  0  0  0  0  0
   68.9207   58.7697   17.9092 C   0  0  0  0  0  0  0  0  0  0  0  0
  1  2  1  0
  3  1  1  0
  4  3  2  0
  8  3  1  0
  5  4  1  0
  6  5  2  0
  6  7  1  0
 10  6  1  0
  7  8  2  0
 31  9  1  6
 32  9  1  0
 10 11  2  0
 10 12  2  0
 10 13  1  6
 13 14  1  0
 18 13  1  0
 15 14  1  6
 15 16  1  0
 15 17  1  0
 16 23  1  0
 17 20  1  0
 19 18  1  0
 19 21  1  6
 22 19  1  0
 22 24  1  0
 22 35  1  6
 24 25  1  0
 25 26  2  0
 25 27  1  0
 28 27  1  6
 28 29  1  0
 28 34  1  0
 29 30  1  0
 31 30  1  0
 34 31  1  0
 33 32  1  0
 34 33  1  6
 41 35  1  0
 36 37  2  0
 36 41  1  0
 37 38  1  0
 38 39  2  0
 39 40  1  0
 40 41  2  0
M  END
$$$$
