
     RDKit          3D

 41 44  0  0  0  0  0  0  0  0999 V2000
   73.2244   48.9977   14.6159 C   0  0  0  0  0  0  0  0  0  0  0  0
   72.6979   48.5926   13.3909 O   0  0  0  0  0  0  0  0  0  0  0  0
   72.9015   50.4328   14.8105 C   0  0  0  0  0  0  0  0  0  0  0  0
   72.8498   50.9760   16.0832 C   0  0  0  0  0  0  0  0  0  0  0  0
   72.5497   52.3170   16.2979 C   0  0  0  0  0  0  0  0  0  0  0  0
   72.3005   53.1128   15.2149 C   0  0  0  0  0  0  0  0  0  0  0  0
   72.3553   52.5583   13.9519 C   0  0  0  0  0  0  0  0  0  0  0  0
   72.6473   51.2490   13.7278 C   0  0  0  0  0  0  0  0  0  0  0  0
   74.1440   62.5765   19.2145 O   0  0  0  0  0  0  0  0  0  0  0  0
   71.9136   54.8374   15.3760 S   0  0  1  0  0  6  0  0  0  0  0  0
   72.9370   55.3550   16.3720 O   0  0  0  0  0  0  0  0  0  0  0  0
   72.1555   55.4794   14.0564 O   0  0  0  0  0  0  0  0  0  0  0  0
   70.2996   55.0155   15.9337 N   0  0  0  0  0  0  0  0  0  0  0  0
   69.5957   53.7898   15.8109 C   0  0  0  0  0  0  0  0  0  0  0  0
   68.4600   53.7568   14.8563 C   0  0  2  0  0  0  0  0  0  0  0  0
   67.7100   52.4791   14.8193 C   0  0  0  0  0  0  0  0  0  0  0  0
   68.9844   54.1836   13.5014 C   0  0  0  0  0  0  0  0  0  0  0  0
   69.6233   56.1787   15.4161 C   0  0  0  0  0  0  0  0  0  0  0  0
   70.4735   57.4000   15.3974 C   0  0  1  0  0  0  0  0  0  0  0  0
   69.5790   53.0536   12.7302 C   0  0  0  0  0  0  0  0  0  0  0  0
   70.2172   58.1813   14.2730 O   0  0  0  0  0  0  0  0  0  0  0  0
   70.4572   58.2160   16.6509 C   0  0  1  0  0  0  0  0  0  0  0  0
   66.5309   52.5155   13.8695 C   0  0  0  0  0  0  0  0  0  0  0  0
   71.6243   59.0746   16.7419 N   0  0  0  0  0  0  0  0  0  0  0  0
   72.5301   59.0725   17.8348 C   0  0  0  0  0  0  0  0  0  0  0  0
   72.3578   58.2225   18.7743 O   0  0  0  0  0  0  0  0  0  0  0  0
   73.5989   59.9338   17.9593 O   0  0  0  0  0  0  0  0  0  0  0  0
   74.5247   59.7794   19.0277 C   0  0  1  0  0  0  0  0  0  0  0  0
   75.8597   60.3796   18.7131 C   0  0  0  0  0  0  0  0  0  0  0  0
   76.1020   61.4004   19.6021 O   0  0  0  0  0  0  0  0  0  0  0  0
   74.9090   61.8416   20.1193 C   0  0  2  0  0  0  0  0  0  0  0  0
   72.8906   62.5559   19.8571 C   0  0  0  0  0  0  0  0  0  0  0  0
   72.6868   61.0660   20.1600 C   0  0  0  0  0  0  0  0  0  0  0  0
   74.0956   60.5733   20.2416 C   0  0  1  0  0  0  0  0  0  0  0  0
   69.2649   59.0816   16.8403 C   0  0  0  0  0  0  0  0  0  0  0  0
   70.0433   59.3475   19.2002 C   0  0  0  0  0  0  0  0  0  0  0  0
   69.9616   59.8119   20.4745 C   0  0  0  0  0  0  0  0  0  0  0  0
   68.9049   60.6068   20.8312 C   0  0  0  0  0  0  0  0  0  0  0  0
   67.9520   60.9192   19.9015 C   0  0  0  0  0  0  0  0  0  0  0  0
   68.0542   60.4324   18.5987 C   0  0  0  0  0  0  0  0  0  0  0  0
   69.1122   59.6276   18.2137 C   0  0  0  0  0  0  0  0  0  0  0  0
  1  2  1  0
  3  1  1  0
  4  3  2  0
  8  3  1  0
  5  4  1  0
  6  5  2  0
  6  7  1  0
 10  6  1  0
  7  8  2  0
 31  9  1  6
 32  9  1  0
 10 11  2  0
 10 12  2  0
 10 13  1  1
 13 14  1  0
 18 13  1  0
 15 14  1  1
 15 16  1  0
 15 17  1  0
 16 23  1  0
 17 20  1  0
 19 18  1  0
 19 21  1  6
 22 19  1  0
 22 24  1  0
 22 35  1  6
 24 25  1  0
 25 26  2  0
 25 27  1  0
 28 27  1  6
 28 29  1  0
 28 34  1  0
 29 30  1  0
 31 30  1  0
 34 31  1  0
 33 32  1  0
 34 33  1  6
 41 35  1  0
 36 37  2  0
 36 41  1  0
 37 38  1  0
 38 39  2  0
 39 40  1  0
 40 41  2  0
M  END
$$$$
