
     RDKit          3D

 41 44  0  0  0  0  0  0  0  0999 V2000
   76.6929   53.4662   14.8028 C   0  0  0  0  0  0  0  0  0  0  0  0
   77.2813   53.1532   16.0267 O   0  0  0  0  0  0  0  0  0  0  0  0
   75.2202   53.4778   14.9830 C   0  0  0  0  0  0  0  0  0  0  0  0
   74.5399   54.6738   15.1392 C   0  0  0  0  0  0  0  0  0  0  0  0
   73.1603   54.7173   15.3103 C   0  0  0  0  0  0  0  0  0  0  0  0
   72.4656   53.5402   15.3229 C   0  0  0  0  0  0  0  0  0  0  0  0
   73.1562   52.3553   15.1661 C   0  0  0  0  0  0  0  0  0  0  0  0
   74.5047   52.2984   14.9981 C   0  0  0  0  0  0  0  0  0  0  0  0
   73.9720   61.7878   19.3821 O   0  0  0  0  0  0  0  0  0  0  0  0
   70.7037   53.4827   15.5286 S   0  0  1  0  0  6  0  0  0  0  0  0
   70.1983   52.8830   14.2277 O   0  0  0  0  0  0  0  0  0  0  0  0
   70.4097   52.5410   16.6416 O   0  0  0  0  0  0  0  0  0  0  0  0
   70.1042   55.0681   15.8025 N   0  0  0  0  0  0  0  0  0  0  0  0
   68.7232   55.0259   16.1246 C   0  0  0  0  0  0  0  0  0  0  0  0
   67.7887   54.6388   15.0388 C   0  0  2  0  0  0  0  0  0  0  0  0
   67.1399   55.7717   14.3374 C   0  0  0  0  0  0  0  0  0  0  0  0
   66.8014   53.6447   15.6131 C   0  0  0  0  0  0  0  0  0  0  0  0
   70.4805   56.0224   14.7895 C   0  0  0  0  0  0  0  0  0  0  0  0
   69.7833   57.3309   14.9189 C   0  0  1  0  0  0  0  0  0  0  0  0
   65.8131   53.1640   14.6045 C   0  0  0  0  0  0  0  0  0  0  0  0
   68.4286   57.2178   14.6151 O   0  0  0  0  0  0  0  0  0  0  0  0
   69.9999   58.0516   16.2116 C   0  0  1  0  0  0  0  0  0  0  0  0
   65.9321   56.3083   15.0769 C   0  0  0  0  0  0  0  0  0  0  0  0
   71.3703   58.5135   16.3399 N   0  0  0  0  0  0  0  0  0  0  0  0
   72.1675   58.3265   17.4993 C   0  0  0  0  0  0  0  0  0  0  0  0
   72.2145   57.1651   18.0322 O   0  0  0  0  0  0  0  0  0  0  0  0
   72.9067   59.3213   18.1024 O   0  0  0  0  0  0  0  0  0  0  0  0
   73.9889   58.9899   18.9635 C   0  0  1  0  0  0  0  0  0  0  0  0
   75.3033   59.4743   18.4351 C   0  0  0  0  0  0  0  0  0  0  0  0
   75.8200   60.3920   19.3195 O   0  0  0  0  0  0  0  0  0  0  0  0
   74.8007   60.9100   20.0798 C   0  0  2  0  0  0  0  0  0  0  0  0
   72.8639   61.8441   20.2500 C   0  0  0  0  0  0  0  0  0  0  0  0
   72.5497   60.3634   20.4989 C   0  0  0  0  0  0  0  0  0  0  0  0
   73.8837   59.7252   20.2811 C   0  0  1  0  0  0  0  0  0  0  0  0
   69.1214   59.2255   16.4495 C   0  0  0  0  0  0  0  0  0  0  0  0
   69.6239   58.9000   18.8758 C   0  0  0  0  0  0  0  0  0  0  0  0
   69.4993   59.1692   20.2018 C   0  0  0  0  0  0  0  0  0  0  0  0
   68.6504   60.1649   20.6062 C   0  0  0  0  0  0  0  0  0  0  0  0
   67.9440   60.8700   19.6715 C   0  0  0  0  0  0  0  0  0  0  0  0
   68.0861   60.5781   18.3152 C   0  0  0  0  0  0  0  0  0  0  0  0
   68.9373   59.5770   17.8814 C   0  0  0  0  0  0  0  0  0  0  0  0
  1  2  1  0
  3  1  1  0
  4  3  2  0
  8  3  1  0
  5  4  1  0
  6  5  2  0
  6  7  1  0
 10  6  1  0
  7  8  2  0
 31  9  1  6
 32  9  1  0
 10 11  2  0
 10 12  2  0
 10 13  1  1
 13 14  1  0
 18 13  1  0
 15 14  1  1
 15 16  1  0
 15 17  1  0
 16 23  1  0
 17 20  1  0
 19 18  1  0
 19 21  1  1
 22 19  1  0
 22 24  1  0
 22 35  1  6
 24 25  1  0
 25 26  2  0
 25 27  1  0
 28 27  1  6
 28 29  1  0
 28 34  1  0
 29 30  1  0
 31 30  1  0
 34 31  1  0
 33 32  1  0
 34 33  1  6
 41 35  1  0
 36 37  2  0
 36 41  1  0
 37 38  1  0
 38 39  2  0
 39 40  1  0
 40 41  2  0
M  END
$$$$
