
     RDKit          3D

 41 44  0  0  0  0  0  0  0  0999 V2000
   65.8408   50.5928   15.3175 C   0  0  0  0  0  0  0  0  0  0  0  0
   66.6021   49.4435   15.5217 O   0  0  0  0  0  0  0  0  0  0  0  0
   66.7295   51.7722   15.4617 C   0  0  0  0  0  0  0  0  0  0  0  0
   66.3245   53.0175   15.0111 C   0  0  0  0  0  0  0  0  0  0  0  0
   67.1347   54.1415   15.1318 C   0  0  0  0  0  0  0  0  0  0  0  0
   68.3638   54.0022   15.7134 C   0  0  0  0  0  0  0  0  0  0  0  0
   68.7548   52.7552   16.1581 C   0  0  0  0  0  0  0  0  0  0  0  0
   67.9728   51.6481   16.0463 C   0  0  0  0  0  0  0  0  0  0  0  0
   72.9385   61.8029   19.4785 O   0  0  0  0  0  0  0  0  0  0  0  0
   69.4734   55.3715   15.9218 S   0  0  1  0  0  6  0  0  0  0  0  0
   68.5557   56.5738   16.0630 O   0  0  0  0  0  0  0  0  0  0  0  0
   70.2051   55.1689   17.2008 O   0  0  0  0  0  0  0  0  0  0  0  0
   70.5083   55.4866   14.5567 N   0  0  0  0  0  0  0  0  0  0  0  0
   71.6852   54.7213   14.7622 C   0  0  0  0  0  0  0  0  0  0  0  0
   72.4839   54.3763   13.5601 C   0  0  2  0  0  0  0  0  0  0  0  0
   71.7156   53.7568   12.4544 C   0  0  0  0  0  0  0  0  0  0  0  0
   73.6617   53.5397   14.0139 C   0  0  0  0  0  0  0  0  0  0  0  0
   70.7135   56.8337   14.0859 C   0  0  0  0  0  0  0  0  0  0  0  0
   71.3835   57.7144   15.0811 C   0  0  1  0  0  0  0  0  0  0  0  0
   74.9684   54.0712   13.5290 C   0  0  0  0  0  0  0  0  0  0  0  0
   71.7573   58.9306   14.5140 O   0  0  0  0  0  0  0  0  0  0  0  0
   70.6470   57.9096   16.3682 C   0  0  1  0  0  0  0  0  0  0  0  0
   72.5360   53.5804   11.1937 C   0  0  0  0  0  0  0  0  0  0  0  0
   71.4853   57.6012   17.5127 N   0  0  0  0  0  0  0  0  0  0  0  0
   72.4301   58.5008   18.0721 C   0  0  0  0  0  0  0  0  0  0  0  0
   73.3166   59.0151   17.3076 O   0  0  0  0  0  0  0  0  0  0  0  0
   72.4623   58.8663   19.4007 O   0  0  0  0  0  0  0  0  0  0  0  0
   73.7029   59.1377   20.0408 C   0  0  1  0  0  0  0  0  0  0  0  0
   74.7350   59.6491   19.0845 C   0  0  0  0  0  0  0  0  0  0  0  0
   75.0830   60.9264   19.4567 O   0  0  0  0  0  0  0  0  0  0  0  0
   74.0737   61.4667   20.2150 C   0  0  2  0  0  0  0  0  0  0  0  0
   71.9932   61.9523   20.5120 C   0  0  0  0  0  0  0  0  0  0  0  0
   72.1570   60.6553   21.3146 C   0  0  0  0  0  0  0  0  0  0  0  0
   73.5745   60.2863   21.0166 C   0  0  1  0  0  0  0  0  0  0  0  0
   70.0892   59.2681   16.5914 C   0  0  0  0  0  0  0  0  0  0  0  0
   69.4169   58.4363   18.8500 C   0  0  0  0  0  0  0  0  0  0  0  0
   68.8530   58.5478   20.0811 C   0  0  0  0  0  0  0  0  0  0  0  0
   68.2835   59.7370   20.4517 C   0  0  0  0  0  0  0  0  0  0  0  0
   68.2918   60.7897   19.5790 C   0  0  0  0  0  0  0  0  0  0  0  0
   68.8758   60.6546   18.3197 C   0  0  0  0  0  0  0  0  0  0  0  0
   69.4575   59.4637   17.9219 C   0  0  0  0  0  0  0  0  0  0  0  0
  1  2  1  0
  3  1  1  0
  4  3  2  0
  8  3  1  0
  5  4  1  0
  6  5  2  0
  6  7  1  0
 10  6  1  0
  7  8  2  0
 31  9  1  6
 32  9  1  0
 10 11  2  0
 10 12  2  0
 10 13  1  6
 13 14  1  0
 18 13  1  0
 15 14  1  1
 15 16  1  0
 15 17  1  0
 16 23  1  0
 17 20  1  0
 19 18  1  0
 19 21  1  6
 22 19  1  0
 22 24  1  0
 22 35  1  1
 24 25  1  0
 25 26  2  0
 25 27  1  0
 28 27  1  6
 28 29  1  0
 28 34  1  0
 29 30  1  0
 31 30  1  0
 34 31  1  0
 33 32  1  0
 34 33  1  6
 41 35  1  0
 36 37  2  0
 36 41  1  0
 37 38  1  0
 38 39  2  0
 39 40  1  0
 40 41  2  0
M  END
$$$$
