
     RDKit          3D

 41 44  0  0  0  0  0  0  0  0999 V2000
   77.7276   54.1673   18.7066 C   0  0  0  0  0  0  0  0  0  0  0  0
   78.6044   55.2395   18.5530 O   0  0  0  0  0  0  0  0  0  0  0  0
   76.3394   54.6872   18.6407 C   0  0  0  0  0  0  0  0  0  0  0  0
   75.3667   54.0074   17.9270 C   0  0  0  0  0  0  0  0  0  0  0  0
   74.0573   54.4694   17.8464 C   0  0  0  0  0  0  0  0  0  0  0  0
   73.7318   55.6283   18.4939 C   0  0  0  0  0  0  0  0  0  0  0  0
   74.7112   56.2958   19.2016 C   0  0  0  0  0  0  0  0  0  0  0  0
   75.9950   55.8554   19.2886 C   0  0  0  0  0  0  0  0  0  0  0  0
   70.7753   63.3046   20.6271 O   0  0  0  0  0  0  0  0  0  0  0  0
   72.0905   56.3027   18.4607 S   0  0  1  0  0  6  0  0  0  0  0  0
   71.2113   55.1614   18.9425 O   0  0  0  0  0  0  0  0  0  0  0  0
   72.0362   57.4076   19.4548 O   0  0  0  0  0  0  0  0  0  0  0  0
   71.7065   56.8043   16.8642 N   0  0  0  0  0  0  0  0  0  0  0  0
   72.3373   58.0403   16.5689 C   0  0  0  0  0  0  0  0  0  0  0  0
   73.5991   57.9844   15.7898 C   0  0  2  0  0  0  0  0  0  0  0  0
   74.1985   59.3024   15.4733 C   0  0  0  0  0  0  0  0  0  0  0  0
   73.3469   57.1309   14.5647 C   0  0  0  0  0  0  0  0  0  0  0  0
   70.3027   56.7275   16.5450 C   0  0  0  0  0  0  0  0  0  0  0  0
   69.6846   58.0521   16.2652 C   0  0  1  0  0  0  0  0  0  0  0  0
   72.7894   57.9112   13.4221 C   0  0  0  0  0  0  0  0  0  0  0  0
   68.6334   57.9415   15.3578 O   0  0  0  0  0  0  0  0  0  0  0  0
   69.2917   58.8474   17.4695 C   0  0  1  0  0  0  0  0  0  0  0  0
   74.9942   59.8795   16.6255 C   0  0  0  0  0  0  0  0  0  0  0  0
   70.3969   59.6509   17.9600 N   0  0  0  0  0  0  0  0  0  0  0  0
   70.7414   59.7772   19.3312 C   0  0  0  0  0  0  0  0  0  0  0  0
   70.1009   59.0823   20.1924 O   0  0  0  0  0  0  0  0  0  0  0  0
   71.7319   60.6077   19.8098 O   0  0  0  0  0  0  0  0  0  0  0  0
   71.9101   60.7795   21.2102 C   0  0  1  0  0  0  0  0  0  0  0  0
   72.9823   61.7750   21.5279 C   0  0  0  0  0  0  0  0  0  0  0  0
   72.4135   62.8338   22.1963 O   0  0  0  0  0  0  0  0  0  0  0  0
   71.0690   62.8726   21.9199 C   0  0  2  0  0  0  0  0  0  0  0  0
   69.4343   62.8891   20.5128 C   0  0  0  0  0  0  0  0  0  0  0  0
   69.4942   61.4189   20.9462 C   0  0  0  0  0  0  0  0  0  0  0  0
   70.6901   61.4112   21.8429 C   0  0  1  0  0  0  0  0  0  0  0  0
   68.1359   59.7626   17.2878 C   0  0  0  0  0  0  0  0  0  0  0  0
   67.4872   59.1803   19.6299 C   0  0  0  0  0  0  0  0  0  0  0  0
   66.7806   59.3297   20.7809 C   0  0  0  0  0  0  0  0  0  0  0  0
   65.8500   60.3304   20.8704 C   0  0  0  0  0  0  0  0  0  0  0  0
   65.6477   61.1607   19.8029 C   0  0  0  0  0  0  0  0  0  0  0  0
   66.3833   60.9907   18.6304 C   0  0  0  0  0  0  0  0  0  0  0  0
   67.3292   59.9872   18.5152 C   0  0  0  0  0  0  0  0  0  0  0  0
  1  2  1  0
  3  1  1  0
  4  3  2  0
  8  3  1  0
  5  4  1  0
  6  5  2  0
  6  7  1  0
 10  6  1  0
  7  8  2  0
 31  9  1  6
 32  9  1  0
 10 11  2  0
 10 12  2  0
 10 13  1  6
 13 14  1  0
 18 13  1  0
 15 14  1  6
 15 16  1  0
 15 17  1  0
 16 23  1  0
 17 20  1  0
 19 18  1  0
 19 21  1  6
 22 19  1  0
 22 24  1  0
 22 35  1  6
 24 25  1  0
 25 26  2  0
 25 27  1  0
 28 27  1  6
 28 29  1  0
 28 34  1  0
 29 30  1  0
 31 30  1  0
 34 31  1  0
 33 32  1  0
 34 33  1  6
 41 35  1  0
 36 37  2  0
 36 41  1  0
 37 38  1  0
 38 39  2  0
 39 40  1  0
 40 41  2  0
M  END
$$$$
