
     RDKit          3D

 41 44  0  0  0  0  0  0  0  0999 V2000
   65.5048   51.5342   13.0233 C   0  0  0  0  0  0  0  0  0  0  0  0
   64.8922   52.2983   12.0318 O   0  0  0  0  0  0  0  0  0  0  0  0
   66.4818   52.3932   13.7368 C   0  0  0  0  0  0  0  0  0  0  0  0
   67.3512   51.8475   14.6664 C   0  0  0  0  0  0  0  0  0  0  0  0
   68.2777   52.6264   15.3515 C   0  0  0  0  0  0  0  0  0  0  0  0
   68.3233   53.9676   15.0922 C   0  0  0  0  0  0  0  0  0  0  0  0
   67.4510   54.4984   14.1633 C   0  0  0  0  0  0  0  0  0  0  0  0
   66.5403   53.7485   13.4865 C   0  0  0  0  0  0  0  0  0  0  0  0
   73.9141   62.4623   19.3549 O   0  0  0  0  0  0  0  0  0  0  0  0
   69.4701   55.0508   15.9055 S   0  0  1  0  0  6  0  0  0  0  0  0
   68.7012   56.3509   16.0666 O   0  0  0  0  0  0  0  0  0  0  0  0
   69.7492   54.4840   17.2520 O   0  0  0  0  0  0  0  0  0  0  0  0
   70.8771   55.2306   14.9380 N   0  0  0  0  0  0  0  0  0  0  0  0
   71.6329   54.0299   14.9363 C   0  0  0  0  0  0  0  0  0  0  0  0
   72.9653   54.0725   14.2842 C   0  0  2  0  0  0  0  0  0  0  0  0
   72.9459   53.9246   12.8097 C   0  0  0  0  0  0  0  0  0  0  0  0
   73.8500   53.0575   14.9770 C   0  0  0  0  0  0  0  0  0  0  0  0
   71.6215   56.4369   15.2007 C   0  0  0  0  0  0  0  0  0  0  0  0
   70.7767   57.6619   15.2249 C   0  0  1  0  0  0  0  0  0  0  0  0
   73.1464   51.7716   15.2537 C   0  0  0  0  0  0  0  0  0  0  0  0
   69.6113   57.4911   14.4812 O   0  0  0  0  0  0  0  0  0  0  0  0
   70.4874   58.2187   16.5827 C   0  0  1  0  0  0  0  0  0  0  0  0
   74.3307   53.9489   12.1970 C   0  0  0  0  0  0  0  0  0  0  0  0
   71.4587   59.2291   16.9612 N   0  0  0  0  0  0  0  0  0  0  0  0
   72.5389   58.9995   17.8529 C   0  0  0  0  0  0  0  0  0  0  0  0
   72.5175   57.9535   18.5879 O   0  0  0  0  0  0  0  0  0  0  0  0
   73.6268   59.8352   17.9865 O   0  0  0  0  0  0  0  0  0  0  0  0
   74.4988   59.7058   19.1025 C   0  0  1  0  0  0  0  0  0  0  0  0
   75.8045   60.4059   18.8866 C   0  0  0  0  0  0  0  0  0  0  0  0
   75.9241   61.4084   19.8204 O   0  0  0  0  0  0  0  0  0  0  0  0
   74.6757   61.7490   20.2797 C   0  0  2  0  0  0  0  0  0  0  0  0
   72.6307   62.3339   19.9212 C   0  0  0  0  0  0  0  0  0  0  0  0
   72.5143   60.8237   20.1641 C   0  0  0  0  0  0  0  0  0  0  0  0
   73.9471   60.4250   20.3133 C   0  0  1  0  0  0  0  0  0  0  0  0
   69.1415   58.8223   16.7577 C   0  0  0  0  0  0  0  0  0  0  0  0
   68.6423   58.6582   19.2009 C   0  0  0  0  0  0  0  0  0  0  0  0
   68.4204   59.1586   20.4445 C   0  0  0  0  0  0  0  0  0  0  0  0
   68.4599   60.5138   20.6381 C   0  0  0  0  0  0  0  0  0  0  0  0
   68.7212   61.3389   19.5794 C   0  0  0  0  0  0  0  0  0  0  0  0
   68.9463   60.8053   18.3107 C   0  0  0  0  0  0  0  0  0  0  0  0
   68.9118   59.4397   18.0896 C   0  0  0  0  0  0  0  0  0  0  0  0
  1  2  1  0
  3  1  1  0
  4  3  2  0
  8  3  1  0
  5  4  1  0
  6  5  2  0
  6  7  1  0
 10  6  1  0
  7  8  2  0
 31  9  1  6
 32  9  1  0
 10 11  2  0
 10 12  2  0
 10 13  1  6
 13 14  1  0
 18 13  1  0
 15 14  1  1
 15 16  1  0
 15 17  1  0
 16 23  1  0
 17 20  1  0
 19 18  1  0
 19 21  1  1
 22 19  1  0
 22 24  1  0
 22 35  1  6
 24 25  1  0
 25 26  2  0
 25 27  1  0
 28 27  1  6
 28 29  1  0
 28 34  1  0
 29 30  1  0
 31 30  1  0
 34 31  1  0
 33 32  1  0
 34 33  1  6
 41 35  1  0
 36 37  2  0
 36 41  1  0
 37 38  1  0
 38 39  2  0
 39 40  1  0
 40 41  2  0
M  END
$$$$
