
     RDKit          3D

 68 73  0  0  0  0  0  0  0  0999 V2000
   -1.9520  -27.3455   -4.7338 N   0  0  0  0  0  4  0  0  0  0  0  0
   -2.3536  -21.0389   -2.5614 N   0  0  0  0  0  0  0  0  0  0  0  0
   -1.1492  -26.3211   -5.2804 C   0  0  0  0  0  0  0  0  0  0  0  0
   -1.0811  -26.2288   -6.7622 C   0  0  0  0  0  0  0  0  0  0  0  0
   -2.0611  -25.5606   -7.4620 C   0  0  0  0  0  0  0  0  0  0  0  0
   -4.2112  -25.5447   -6.1693 C   0  0  0  0  0  0  0  0  0  0  0  0
   -4.0953  -25.0363   -4.7436 C   0  0  0  0  0  0  0  0  0  0  0  0
   -3.9340  -24.2586   -2.0880 C   0  0  0  0  0  0  0  0  0  0  0  0
   -2.9148  -22.1146   -2.8028 C   0  0  0  0  0  0  0  0  0  0  0  0
   -0.8585  -26.0692   -9.5100 C   0  0  0  0  0  0  0  0  0  0  0  0
   -0.6562  -30.9021   -1.7515 C   0  0  0  0  0  0  0  0  0  0  0  0
   -3.5677  -23.3891   -3.0661 C   0  0  0  0  0  0  0  0  0  0  0  0
   -3.6579  -23.7974   -4.4139 C   0  0  0  0  0  0  0  0  0  0  0  0
   -1.9608  -25.4687   -8.8568 C   0  0  0  0  0  0  0  0  0  0  0  0
   -1.8012  -26.3968  -11.7714 C   0  0  0  0  0  0  0  0  0  0  0  0
   -0.7007  -28.7493   -3.0899 C   0  0  0  0  0  0  0  0  0  0  0  0
   -1.3412  -28.5899   -4.4301 C   0  0  0  0  0  0  0  0  0  0  0  0
   -4.4561  -25.8965   -3.7318 C   0  0  0  0  0  0  0  0  0  0  0  0
   -4.3760  -25.5070   -2.4360 N   0  0  0  0  0  0  0  0  0  0  0  0
   -3.1526  -24.9680   -6.8617 O   0  0  0  0  0  0  0  0  0  0  0  0
   -0.7754  -26.0006  -10.8650 O   0  0  0  0  0  0  0  0  0  0  0  0
   -1.4852  -25.1540  -20.7113 O   0  0  0  0  0  0  0  0  0  0  0  0
   -0.1659  -30.0463   -2.8099 N   0  0  0  0  0  0  0  0  0  0  0  0
   -0.4027  -32.3387   -1.7780 C   0  0  0  0  0  0  0  0  0  0  0  0
   -1.2892  -30.2937   -0.8691 O   0  0  0  0  0  0  0  0  0  0  0  0
   -2.1296  -25.1726  -12.5700 C   0  0  0  0  0  0  0  0  0  0  0  0
   -2.7702  -23.9974  -11.9875 C   0  0  0  0  0  0  0  0  0  0  0  0
   -2.8843  -22.9584  -12.8948 C   0  0  0  0  0  0  0  0  0  0  0  0
   -2.5200  -22.8568  -14.1485 C   0  0  0  0  0  0  0  0  0  0  0  0
   -1.8685  -24.0320  -14.7658 C   0  0  0  0  0  0  0  0  0  0  0  0
   -1.7811  -25.0270  -13.8319 C   0  0  0  0  0  0  0  0  0  0  0  0
   -1.0213  -26.2537  -14.4382 C   0  0  0  0  0  0  0  0  0  0  0  0
   -1.3358  -24.0051  -16.0819 C   0  0  0  0  0  0  0  0  0  0  0  0
    0.0426  -23.5912  -16.2301 C   0  0  0  0  0  0  0  0  0  0  0  0
    0.6760  -23.7217  -17.4209 C   0  0  0  0  0  0  0  0  0  0  0  0
    0.0633  -24.2425  -18.5488 C   0  0  0  0  0  0  0  0  0  0  0  0
   -1.2370  -24.6279  -18.4122 C   0  0  0  0  0  0  0  0  0  0  0  0
   -1.9198  -24.5052  -17.1933 C   0  0  0  0  0  0  0  0  0  0  0  0
   -3.3341  -24.9048  -17.0898 C   0  0  0  0  0  0  0  0  0  0  0  0
   -2.0113  -25.1738  -19.5850 C   0  0  0  0  0  0  0  0  0  0  0  0
   -0.9457  -25.1567  -21.9007 C   0  0  0  0  0  0  0  0  0  0  0  0
    0.2254  -24.4003  -22.1594 C   0  0  0  0  0  0  0  0  0  0  0  0
    0.8151  -24.3227  -23.3795 C   0  0  0  0  0  0  0  0  0  0  0  0
    0.2227  -25.0267  -24.4492 C   0  0  0  0  0  0  0  0  0  0  0  0
    0.6760  -24.8341  -25.8216 C   0  0  0  0  0  0  0  0  0  0  0  0
    2.6849  -26.1988  -25.9459 C   0  0  0  0  0  0  0  0  0  0  0  0
    3.5130  -25.2364  -26.8060 C   0  0  0  0  0  0  0  0  0  0  0  0
    2.3316  -25.5014  -28.9822 C   0  0  0  0  0  0  0  0  0  0  0  0
    2.3815  -24.7327  -30.2201 C   0  0  0  0  0  0  0  0  0  0  0  0
   -0.9395  -25.7976  -24.2157 C   0  0  0  0  0  0  0  0  0  0  0  0
   -1.5018  -25.8680  -22.9903 C   0  0  0  0  0  0  0  0  0  0  0  0
   -2.6597  -26.7520  -22.7369 C   0  0  0  0  0  0  0  0  0  0  0  0
    2.8370  -22.9154  -24.0888 C   0  0  0  0  0  0  0  0  0  0  0  0
    3.6844  -22.4261  -22.7388 C   0  0  0  0  0  0  0  0  0  0  0  0
    4.5431  -23.3503  -22.4305 C   0  0  0  0  0  0  0  0  0  0  0  0
    5.2437  -21.6290  -21.0993 C   0  0  0  0  0  0  0  0  0  0  0  0
    4.4777  -20.7053  -21.3266 C   0  0  0  0  0  0  0  0  0  0  0  0
    3.3688  -21.1910  -22.4493 C   0  0  0  0  0  0  0  0  0  0  0  0
    4.2631  -19.3906  -20.9682 C   0  0  0  0  0  0  0  0  0  0  0  0
    0.0781  -26.7221   -8.7744 C   0  0  0  0  0  0  0  0  0  0  0  0
    0.0278  -26.8424   -7.3885 C   0  0  0  0  0  0  0  0  0  0  0  0
    1.3023  -27.3418   -9.4248 C   0  0  0  0  0  0  0  0  0  0  0  0
    1.3016  -26.0867  -26.2904 N   0  0  0  0  0  4  0  0  0  0  0  0
    3.5024  -25.6929  -28.1587 N   0  0  0  0  0  0  0  0  0  0  0  0
    5.5655  -22.8816  -21.3839 N   0  0  0  0  0  0  0  0  0  0  0  0
    4.0594  -18.2053  -20.6646 N   0  0  0  0  0  0  0  0  0  0  0  0
    1.2302  -26.0394  -28.5685 O   0  0  0  0  0  0  0  0  0  0  0  0
    1.8969  -23.6425  -23.5747 O   0  0  0  0  0  0  0  0  0  0  0  0
  3  1  1  0
  1 17  1  0
  9  2  3  0
  4  3  1  0
  5  4  2  0
  4 61  1  0
 14  5  1  0
  5 20  1  0
  6  7  1  0
 20  6  1  0
  7 13  2  0
  7 18  1  0
 12  8  2  0
 19  8  1  0
 12  9  1  0
 10 14  2  0
 21 10  1  0
 10 60  1  0
 23 11  1  0
 11 24  1  0
 11 25  2  0
 13 12  1  0
 15 21  1  0
 26 15  1  0
 17 16  1  0
 16 23  1  0
 18 19  2  0
 22 40  1  0
 41 22  1  0
 26 27  2  0
 31 26  1  0
 28 27  1  0
 29 28  2  0
 30 29  1  0
 30 31  2  0
 33 30  1  0
 31 32  1  0
 33 34  2  0
 38 33  1  0
 35 34  1  0
 36 35  2  0
 37 36  1  0
 37 38  2  0
 40 37  1  0
 38 39  1  0
 42 41  2  0
 41 51  1  0
 43 42  1  0
 43 44  2  0
 68 43  1  0
 44 45  1  0
 44 50  1  0
 45 63  1  0
 46 47  1  0
 63 46  1  0
 47 64  1  0
 48 49  1  0
 64 48  1  0
 48 67  2  0
 50 51  2  0
 51 52  1  0
 54 53  1  0
 53 68  1  0
 55 54  2  0
 54 58  1  0
 65 55  1  0
 56 57  1  0
 56 65  2  0
 57 58  2  0
 57 59  1  0
 59 66  3  0
 60 61  2  0
 60 62  1  0
M  CHG  2   1   1  63   1
M  END
$$$$
