
     RDKit          3D

 68 73  0  0  0  0  0  0  0  0999 V2000
  -13.7529  -23.8991  -18.6514 N   0  0  0  0  0  4  0  0  0  0  0  0
  -11.5644  -21.8342  -27.0486 N   0  0  0  0  0  0  0  0  0  0  0  0
  -12.7043  -23.1438  -19.2195 C   0  0  0  0  0  0  0  0  0  0  0  0
  -11.3925  -23.1699  -18.5213 C   0  0  0  0  0  0  0  0  0  0  0  0
  -10.2321  -23.3831  -19.2316 C   0  0  0  0  0  0  0  0  0  0  0  0
   -9.3427  -23.1001  -21.5604 C   0  0  0  0  0  0  0  0  0  0  0  0
   -9.8318  -23.6660  -22.8815 C   0  0  0  0  0  0  0  0  0  0  0  0
  -10.7151  -24.8518  -25.2259 C   0  0  0  0  0  0  0  0  0  0  0  0
  -11.1440  -22.6016  -26.1741 C   0  0  0  0  0  0  0  0  0  0  0  0
   -8.9935  -23.1634  -17.1539 C   0  0  0  0  0  0  0  0  0  0  0  0
  -17.9144  -21.6488  -18.9033 C   0  0  0  0  0  0  0  0  0  0  0  0
  -10.6270  -23.4978  -25.1497 C   0  0  0  0  0  0  0  0  0  0  0  0
  -10.1727  -22.9079  -23.9510 C   0  0  0  0  0  0  0  0  0  0  0  0
   -9.0063  -23.3800  -18.5522 C   0  0  0  0  0  0  0  0  0  0  0  0
   -6.5901  -23.7216  -17.0062 C   0  0  0  0  0  0  0  0  0  0  0  0
  -16.2216  -23.5289  -18.7386 C   0  0  0  0  0  0  0  0  0  0  0  0
  -14.9651  -24.0219  -19.3790 C   0  0  0  0  0  0  0  0  0  0  0  0
   -9.9344  -25.0343  -22.9866 C   0  0  0  0  0  0  0  0  0  0  0  0
  -10.3654  -25.6057  -24.1376 N   0  0  0  0  0  0  0  0  0  0  0  0
  -10.2049  -23.6035  -20.5931 O   0  0  0  0  0  0  0  0  0  0  0  0
   -7.8062  -23.1853  -16.4924 O   0  0  0  0  0  0  0  0  0  0  0  0
    1.9952  -26.3494  -14.1369 O   0  0  0  0  0  0  0  0  0  0  0  0
  -16.5711  -22.1716  -19.0254 N   0  0  0  0  0  0  0  0  0  0  0  0
  -18.2439  -20.3184  -19.4038 C   0  0  0  0  0  0  0  0  0  0  0  0
  -18.7065  -22.4302  -18.3452 O   0  0  0  0  0  0  0  0  0  0  0  0
   -5.5217  -23.2895  -16.0490 C   0  0  0  0  0  0  0  0  0  0  0  0
   -5.8099  -22.5472  -14.8256 C   0  0  0  0  0  0  0  0  0  0  0  0
   -4.6777  -22.3452  -14.0557 C   0  0  0  0  0  0  0  0  0  0  0  0
   -3.4307  -22.7024  -14.2352 C   0  0  0  0  0  0  0  0  0  0  0  0
   -3.1086  -23.4556  -15.4662 C   0  0  0  0  0  0  0  0  0  0  0  0
   -4.2563  -23.6272  -16.1894 C   0  0  0  0  0  0  0  0  0  0  0  0
   -3.9555  -24.4928  -17.4583 C   0  0  0  0  0  0  0  0  0  0  0  0
   -1.8163  -23.9874  -15.7189 C   0  0  0  0  0  0  0  0  0  0  0  0
   -1.0179  -23.3339  -16.7332 C   0  0  0  0  0  0  0  0  0  0  0  0
    0.2873  -23.6593  -16.8971 C   0  0  0  0  0  0  0  0  0  0  0  0
    0.9289  -24.6168  -16.1285 C   0  0  0  0  0  0  0  0  0  0  0  0
    0.1765  -25.2373  -15.1761 C   0  0  0  0  0  0  0  0  0  0  0  0
   -1.1764  -24.9227  -14.9824 C   0  0  0  0  0  0  0  0  0  0  0  0
   -1.9667  -25.6345  -13.9630 C   0  0  0  0  0  0  0  0  0  0  0  0
    0.7642  -26.3211  -14.3083 C   0  0  0  0  0  0  0  0  0  0  0  0
    3.2863  -26.4051  -13.9477 C   0  0  0  0  0  0  0  0  0  0  0  0
    4.1634  -26.6187  -15.0411 C   0  0  0  0  0  0  0  0  0  0  0  0
    5.5100  -26.7299  -14.9130 C   0  0  0  0  0  0  0  0  0  0  0  0
    6.0638  -26.6369  -13.6185 C   0  0  0  0  0  0  0  0  0  0  0  0
    7.4682  -26.9443  -13.3753 C   0  0  0  0  0  0  0  0  0  0  0  0
    6.8439  -29.2027  -12.7246 C   0  0  0  0  0  0  0  0  0  0  0  0
    7.1252  -30.3069  -11.6982 C   0  0  0  0  0  0  0  0  0  0  0  0
    5.3751  -30.0216   -9.9496 C   0  0  0  0  0  0  0  0  0  0  0  0
    4.7471  -31.3359   -9.8864 C   0  0  0  0  0  0  0  0  0  0  0  0
    5.2121  -26.4131  -12.5121 C   0  0  0  0  0  0  0  0  0  0  0  0
    3.8761  -26.2950  -12.6662 C   0  0  0  0  0  0  0  0  0  0  0  0
    3.0063  -25.9663  -11.5164 C   0  0  0  0  0  0  0  0  0  0  0  0
    6.9341  -27.4007  -16.9364 C   0  0  0  0  0  0  0  0  0  0  0  0
    6.7781  -26.2083  -18.0913 C   0  0  0  0  0  0  0  0  0  0  0  0
    5.5962  -26.2971  -18.6222 C   0  0  0  0  0  0  0  0  0  0  0  0
    6.2974  -24.2770  -19.4307 C   0  0  0  0  0  0  0  0  0  0  0  0
    7.4191  -24.1130  -18.9765 C   0  0  0  0  0  0  0  0  0  0  0  0
    7.8168  -25.4160  -18.0438 C   0  0  0  0  0  0  0  0  0  0  0  0
    8.4379  -23.1829  -18.9722 C   0  0  0  0  0  0  0  0  0  0  0  0
  -10.1665  -22.9640  -16.4990 C   0  0  0  0  0  0  0  0  0  0  0  0
  -11.4102  -22.9561  -17.1240 C   0  0  0  0  0  0  0  0  0  0  0  0
  -10.2001  -22.6811  -15.0074 C   0  0  0  0  0  0  0  0  0  0  0  0
    7.5466  -28.0122  -12.3587 N   0  0  0  0  0  4  0  0  0  0  0  0
    6.7355  -29.8502  -10.4030 N   0  0  0  0  0  0  0  0  0  0  0  0
    5.2439  -25.0775  -19.4876 N   0  0  0  0  0  0  0  0  0  0  0  0
    9.3394  -22.3308  -18.9726 N   0  0  0  0  0  0  0  0  0  0  0  0
    4.7332  -28.9523   -9.6060 O   0  0  0  0  0  0  0  0  0  0  0  0
    6.2830  -26.9004  -15.9351 O   0  0  0  0  0  0  0  0  0  0  0  0
  3  1  1  0
  1 17  1  0
  9  2  3  0
  4  3  1  0
  5  4  2  0
  4 61  1  0
 14  5  1  0
  5 20  1  0
  6  7  1  0
 20  6  1  0
  7 13  2  0
  7 18  1  0
 12  8  2  0
 19  8  1  0
 12  9  1  0
 10 14  2  0
 21 10  1  0
 10 60  1  0
 23 11  1  0
 11 24  1  0
 11 25  2  0
 13 12  1  0
 15 21  1  0
 26 15  1  0
 17 16  1  0
 16 23  1  0
 18 19  2  0
 22 40  1  0
 41 22  1  0
 26 27  2  0
 31 26  1  0
 28 27  1  0
 29 28  2  0
 30 29  1  0
 30 31  2  0
 33 30  1  0
 31 32  1  0
 33 34  2  0
 38 33  1  0
 35 34  1  0
 36 35  2  0
 37 36  1  0
 37 38  2  0
 40 37  1  0
 38 39  1  0
 42 41  2  0
 41 51  1  0
 43 42  1  0
 43 44  2  0
 68 43  1  0
 44 45  1  0
 44 50  1  0
 45 63  1  0
 46 47  1  0
 63 46  1  0
 47 64  1  0
 48 49  1  0
 64 48  1  0
 48 67  2  0
 50 51  2  0
 51 52  1  0
 54 53  1  0
 53 68  1  0
 55 54  2  0
 54 58  1  0
 65 55  1  0
 56 57  1  0
 56 65  2  0
 57 58  2  0
 57 59  1  0
 59 66  3  0
 60 61  2  0
 60 62  1  0
M  CHG  2   1   1  63   1
M  END
$$$$
