
     RDKit          3D

 68 73  0  0  0  0  0  0  0  0999 V2000
    3.3123  -24.3603  -25.4586 N   0  0  0  0  0  4  0  0  0  0  0  0
    6.8784  -18.5153  -24.2615 N   0  0  0  0  0  0  0  0  0  0  0  0
    3.9052  -24.5443  -24.1907 C   0  0  0  0  0  0  0  0  0  0  0  0
    3.0059  -24.5053  -23.0080 C   0  0  0  0  0  0  0  0  0  0  0  0
    3.5302  -24.5526  -21.7353 C   0  0  0  0  0  0  0  0  0  0  0  0
    5.9647  -24.1065  -22.1455 C   0  0  0  0  0  0  0  0  0  0  0  0
    5.9299  -22.6219  -21.8300 C   0  0  0  0  0  0  0  0  0  0  0  0
    5.8394  -19.9511  -21.0940 C   0  0  0  0  0  0  0  0  0  0  0  0
    6.5169  -19.3193  -23.3936 C   0  0  0  0  0  0  0  0  0  0  0  0
    1.2688  -24.3874  -20.8647 C   0  0  0  0  0  0  0  0  0  0  0  0
    7.0391  -24.9125  -28.1624 C   0  0  0  0  0  0  0  0  0  0  0  0
    6.0988  -20.2835  -22.3860 C   0  0  0  0  0  0  0  0  0  0  0  0
    6.1387  -21.6471  -22.7471 C   0  0  0  0  0  0  0  0  0  0  0  0
    2.6616  -24.4911  -20.6373 C   0  0  0  0  0  0  0  0  0  0  0  0
    0.7367  -24.8240  -18.4906 C   0  0  0  0  0  0  0  0  0  0  0  0
    5.4653  -23.7360  -26.5603 C   0  0  0  0  0  0  0  0  0  0  0  0
    4.1432  -24.4302  -26.6068 C   0  0  0  0  0  0  0  0  0  0  0  0
    5.6729  -22.2555  -20.5287 C   0  0  0  0  0  0  0  0  0  0  0  0
    5.6285  -20.9470  -20.1781 N   0  0  0  0  0  0  0  0  0  0  0  0
    4.8804  -24.6594  -21.4739 O   0  0  0  0  0  0  0  0  0  0  0  0
    0.4257  -24.3527  -19.7990 O   0  0  0  0  0  0  0  0  0  0  0  0
    0.1883  -25.2142   -9.6410 O   0  0  0  0  0  0  0  0  0  0  0  0
    6.6054  -24.5575  -26.8287 N   0  0  0  0  0  0  0  0  0  0  0  0
    8.2304  -25.7301  -28.3649 C   0  0  0  0  0  0  0  0  0  0  0  0
    6.3122  -24.4546  -29.0632 O   0  0  0  0  0  0  0  0  0  0  0  0
   -0.4933  -24.5808  -17.6706 C   0  0  0  0  0  0  0  0  0  0  0  0
   -1.7353  -24.0691  -18.2417 C   0  0  0  0  0  0  0  0  0  0  0  0
   -2.7588  -24.0189  -17.3113 C   0  0  0  0  0  0  0  0  0  0  0  0
   -2.7973  -24.3484  -16.0446 C   0  0  0  0  0  0  0  0  0  0  0  0
   -1.5535  -24.8698  -15.4384 C   0  0  0  0  0  0  0  0  0  0  0  0
   -0.5768  -24.8983  -16.3951 C   0  0  0  0  0  0  0  0  0  0  0  0
    0.7280  -25.5233  -15.7978 C   0  0  0  0  0  0  0  0  0  0  0  0
   -1.5008  -25.3582  -14.1060 C   0  0  0  0  0  0  0  0  0  0  0  0
   -2.0035  -26.6941  -13.8698 C   0  0  0  0  0  0  0  0  0  0  0  0
   -1.8137  -27.2992  -12.6723 C   0  0  0  0  0  0  0  0  0  0  0  0
   -1.1467  -26.6955  -11.6188 C   0  0  0  0  0  0  0  0  0  0  0  0
   -0.6772  -25.4347  -11.8379 C   0  0  0  0  0  0  0  0  0  0  0  0
   -0.8581  -24.7820  -13.0660 C   0  0  0  0  0  0  0  0  0  0  0  0
   -0.3627  -23.4078  -13.2577 C   0  0  0  0  0  0  0  0  0  0  0  0
    0.0310  -24.6708  -10.7481 C   0  0  0  0  0  0  0  0  0  0  0  0
    0.3576  -25.8092   -8.4907 C   0  0  0  0  0  0  0  0  0  0  0  0
   -0.5451  -25.5762   -7.4224 C   0  0  0  0  0  0  0  0  0  0  0  0
   -0.4072  -26.1260   -6.1891 C   0  0  0  0  0  0  0  0  0  0  0  0
    0.7015  -26.9676   -5.9576 C   0  0  0  0  0  0  0  0  0  0  0  0
    1.0283  -27.4318   -4.6146 C   0  0  0  0  0  0  0  0  0  0  0  0
   -0.3125  -29.4201   -5.0180 C   0  0  0  0  0  0  0  0  0  0  0  0
   -1.0397  -30.5304   -4.2499 C   0  0  0  0  0  0  0  0  0  0  0  0
   -3.1230  -29.5996   -3.2522 C   0  0  0  0  0  0  0  0  0  0  0  0
   -4.5702  -29.4232   -3.2462 C   0  0  0  0  0  0  0  0  0  0  0  0
    1.6108  -27.2252   -7.0095 C   0  0  0  0  0  0  0  0  0  0  0  0
    1.4463  -26.6750   -8.2313 C   0  0  0  0  0  0  0  0  0  0  0  0
    2.3485  -27.0265   -9.3489 C   0  0  0  0  0  0  0  0  0  0  0  0
   -2.3503  -25.7503   -4.5597 C   0  0  0  0  0  0  0  0  0  0  0  0
   -3.4374  -26.7006   -5.3935 C   0  0  0  0  0  0  0  0  0  0  0  0
   -3.6695  -27.7728   -4.6985 C   0  0  0  0  0  0  0  0  0  0  0  0
   -5.3098  -27.9064   -6.2851 C   0  0  0  0  0  0  0  0  0  0  0  0
   -5.1613  -26.9234   -6.9946 C   0  0  0  0  0  0  0  0  0  0  0  0
   -3.8780  -26.0472   -6.4366 C   0  0  0  0  0  0  0  0  0  0  0  0
   -5.7354  -26.3042   -8.0855 C   0  0  0  0  0  0  0  0  0  0  0  0
    0.8020  -24.3504  -22.1396 C   0  0  0  0  0  0  0  0  0  0  0  0
    1.6193  -24.4071  -23.2649 C   0  0  0  0  0  0  0  0  0  0  0  0
   -0.6793  -24.1927  -22.4341 C   0  0  0  0  0  0  0  0  0  0  0  0
   -0.0571  -28.3162   -4.1456 N   0  0  0  0  0  4  0  0  0  0  0  0
   -2.4470  -30.3006   -4.3187 N   0  0  0  0  0  0  0  0  0  0  0  0
   -4.8652  -28.5761   -5.2328 N   0  0  0  0  0  0  0  0  0  0  0  0
   -6.2412  -25.7614   -9.0795 N   0  0  0  0  0  0  0  0  0  0  0  0
   -2.3840  -29.1277   -2.3010 O   0  0  0  0  0  0  0  0  0  0  0  0
   -1.2630  -25.9112   -5.2444 O   0  0  0  0  0  0  0  0  0  0  0  0
  3  1  1  0
  1 17  1  0
  9  2  3  0
  4  3  1  0
  5  4  2  0
  4 61  1  0
 14  5  1  0
  5 20  1  0
  6  7  1  0
 20  6  1  0
  7 13  2  0
  7 18  1  0
 12  8  2  0
 19  8  1  0
 12  9  1  0
 10 14  2  0
 21 10  1  0
 10 60  1  0
 23 11  1  0
 11 24  1  0
 11 25  2  0
 13 12  1  0
 15 21  1  0
 26 15  1  0
 17 16  1  0
 16 23  1  0
 18 19  2  0
 22 40  1  0
 41 22  1  0
 26 27  2  0
 31 26  1  0
 28 27  1  0
 29 28  2  0
 30 29  1  0
 30 31  2  0
 33 30  1  0
 31 32  1  0
 33 34  2  0
 38 33  1  0
 35 34  1  0
 36 35  2  0
 37 36  1  0
 37 38  2  0
 40 37  1  0
 38 39  1  0
 42 41  2  0
 41 51  1  0
 43 42  1  0
 43 44  2  0
 68 43  1  0
 44 45  1  0
 44 50  1  0
 45 63  1  0
 46 47  1  0
 63 46  1  0
 47 64  1  0
 48 49  1  0
 64 48  1  0
 48 67  2  0
 50 51  2  0
 51 52  1  0
 54 53  1  0
 53 68  1  0
 55 54  2  0
 54 58  1  0
 65 55  1  0
 56 57  1  0
 56 65  2  0
 57 58  2  0
 57 59  1  0
 59 66  3  0
 60 61  2  0
 60 62  1  0
M  CHG  2   1   1  63   1
M  END
$$$$
