
     RDKit          3D

 68 73  0  0  0  0  0  0  0  0999 V2000
   -2.9057  -25.0254   -4.1670 N   0  0  0  0  0  4  0  0  0  0  0  0
   -8.4792  -31.7182   -5.4386 N   0  0  0  0  0  0  0  0  0  0  0  0
   -2.7081  -24.2263   -5.3138 C   0  0  0  0  0  0  0  0  0  0  0  0
   -1.9662  -24.8367   -6.4478 C   0  0  0  0  0  0  0  0  0  0  0  0
   -2.4123  -26.0077   -7.0193 C   0  0  0  0  0  0  0  0  0  0  0  0
   -4.0996  -27.8640   -7.0572 C   0  0  0  0  0  0  0  0  0  0  0  0
   -4.9470  -28.4002   -5.9174 C   0  0  0  0  0  0  0  0  0  0  0  0
   -6.4315  -29.2581   -3.7396 C   0  0  0  0  0  0  0  0  0  0  0  0
   -7.5955  -30.8848   -5.2044 C   0  0  0  0  0  0  0  0  0  0  0  0
   -0.5524  -25.8833   -8.5765 C   0  0  0  0  0  0  0  0  0  0  0  0
   -2.0902  -28.8929   -2.5259 C   0  0  0  0  0  0  0  0  0  0  0  0
   -6.5699  -29.8867   -4.9366 C   0  0  0  0  0  0  0  0  0  0  0  0
   -5.8054  -29.4412   -6.0359 C   0  0  0  0  0  0  0  0  0  0  0  0
   -1.7070  -26.5499   -8.1022 C   0  0  0  0  0  0  0  0  0  0  0  0
   -0.4314  -26.9478  -10.8040 C   0  0  0  0  0  0  0  0  0  0  0  0
   -1.2033  -26.6853   -3.4019 C   0  0  0  0  0  0  0  0  0  0  0  0
   -1.7854  -25.3106   -3.3440 C   0  0  0  0  0  0  0  0  0  0  0  0
   -4.8303  -27.7808   -4.6940 C   0  0  0  0  0  0  0  0  0  0  0  0
   -5.5587  -28.2084   -3.6339 N   0  0  0  0  0  0  0  0  0  0  0  0
   -3.5290  -26.6890   -6.5814 O   0  0  0  0  0  0  0  0  0  0  0  0
    0.1447  -26.4234   -9.6108 O   0  0  0  0  0  0  0  0  0  0  0  0
    0.5607  -25.8130  -19.6724 O   0  0  0  0  0  0  0  0  0  0  0  0
   -2.1497  -27.7579   -3.4209 N   0  0  0  0  0  0  0  0  0  0  0  0
   -2.6140  -28.7982   -1.1674 C   0  0  0  0  0  0  0  0  0  0  0  0
   -1.5618  -29.9007   -3.0306 O   0  0  0  0  0  0  0  0  0  0  0  0
    0.7247  -27.3199  -11.6812 C   0  0  0  0  0  0  0  0  0  0  0  0
    1.6233  -28.4289  -11.3759 C   0  0  0  0  0  0  0  0  0  0  0  0
    2.5540  -28.6410  -12.3781 C   0  0  0  0  0  0  0  0  0  0  0  0
    2.7527  -28.0335  -13.5210 C   0  0  0  0  0  0  0  0  0  0  0  0
    1.8575  -26.9056  -13.8573 C   0  0  0  0  0  0  0  0  0  0  0  0
    0.9608  -26.7374  -12.8387 C   0  0  0  0  0  0  0  0  0  0  0  0
   -0.0498  -25.6009  -13.2083 C   0  0  0  0  0  0  0  0  0  0  0  0
    1.9069  -26.2402  -15.1109 C   0  0  0  0  0  0  0  0  0  0  0  0
    3.0604  -25.4074  -15.3737 C   0  0  0  0  0  0  0  0  0  0  0  0
    3.2727  -24.8963  -16.6106 C   0  0  0  0  0  0  0  0  0  0  0  0
    2.4212  -25.1261  -17.6788 C   0  0  0  0  0  0  0  0  0  0  0  0
    1.3310  -25.9060  -17.4314 C   0  0  0  0  0  0  0  0  0  0  0  0
    1.0837  -26.4492  -16.1623 C   0  0  0  0  0  0  0  0  0  0  0  0
   -0.1205  -27.2638  -15.9238 C   0  0  0  0  0  0  0  0  0  0  0  0
    0.3193  -26.1900  -18.5126 C   0  0  0  0  0  0  0  0  0  0  0  0
    0.8099  -25.3909  -20.8830 C   0  0  0  0  0  0  0  0  0  0  0  0
    2.0132  -25.7573  -21.5374 C   0  0  0  0  0  0  0  0  0  0  0  0
    2.3569  -25.3221  -22.7763 C   0  0  0  0  0  0  0  0  0  0  0  0
    1.4707  -24.4498  -23.4432 C   0  0  0  0  0  0  0  0  0  0  0  0
    1.8573  -23.7840  -24.6814 C   0  0  0  0  0  0  0  0  0  0  0  0
    2.7152  -21.7083  -23.7489 C   0  0  0  0  0  0  0  0  0  0  0  0
    2.5175  -20.1876  -23.7446 C   0  0  0  0  0  0  0  0  0  0  0  0
    4.7965  -19.3979  -23.1245 C   0  0  0  0  0  0  0  0  0  0  0  0
    6.0359  -18.6956  -23.4352 C   0  0  0  0  0  0  0  0  0  0  0  0
    0.2586  -24.0775  -22.8172 C   0  0  0  0  0  0  0  0  0  0  0  0
   -0.0664  -24.5323  -21.5884 C   0  0  0  0  0  0  0  0  0  0  0  0
   -1.3778  -24.2136  -20.9841 C   0  0  0  0  0  0  0  0  0  0  0  0
    4.6407  -25.7365  -23.8647 C   0  0  0  0  0  0  0  0  0  0  0  0
    5.6103  -25.5780  -22.5176 C   0  0  0  0  0  0  0  0  0  0  0  0
    5.1068  -24.6599  -21.7496 C   0  0  0  0  0  0  0  0  0  0  0  0
    6.6701  -25.5905  -20.3655 C   0  0  0  0  0  0  0  0  0  0  0  0
    7.2022  -26.4748  -21.0186 C   0  0  0  0  0  0  0  0  0  0  0  0
    6.5195  -26.5175  -22.5214 C   0  0  0  0  0  0  0  0  0  0  0  0
    8.1624  -27.4571  -20.8927 C   0  0  0  0  0  0  0  0  0  0  0  0
   -0.1507  -24.7343   -7.9739 C   0  0  0  0  0  0  0  0  0  0  0  0
   -0.8137  -24.1524   -6.8972 C   0  0  0  0  0  0  0  0  0  0  0  0
    1.0541  -23.9585   -8.4763 C   0  0  0  0  0  0  0  0  0  0  0  0
    1.6752  -22.3288  -24.5094 N   0  0  0  0  0  4  0  0  0  0  0  0
    3.7467  -19.5564  -24.1035 N   0  0  0  0  0  0  0  0  0  0  0  0
    5.7547  -24.6336  -20.3568 N   0  0  0  0  0  0  0  0  0  0  0  0
    9.0134  -28.3539  -20.7911 N   0  0  0  0  0  0  0  0  0  0  0  0
    4.5905  -19.9137  -21.9562 O   0  0  0  0  0  0  0  0  0  0  0  0
    3.4515  -25.6957  -23.3537 O   0  0  0  0  0  0  0  0  0  0  0  0
  3  1  1  0
  1 17  1  0
  9  2  3  0
  4  3  1  0
  5  4  2  0
  4 61  1  0
 14  5  1  0
  5 20  1  0
  6  7  1  0
 20  6  1  0
  7 13  2  0
  7 18  1  0
 12  8  2  0
 19  8  1  0
 12  9  1  0
 10 14  2  0
 21 10  1  0
 10 60  1  0
 23 11  1  0
 11 24  1  0
 11 25  2  0
 13 12  1  0
 15 21  1  0
 26 15  1  0
 17 16  1  0
 16 23  1  0
 18 19  2  0
 22 40  1  0
 41 22  1  0
 26 27  2  0
 31 26  1  0
 28 27  1  0
 29 28  2  0
 30 29  1  0
 30 31  2  0
 33 30  1  0
 31 32  1  0
 33 34  2  0
 38 33  1  0
 35 34  1  0
 36 35  2  0
 37 36  1  0
 37 38  2  0
 40 37  1  0
 38 39  1  0
 42 41  2  0
 41 51  1  0
 43 42  1  0
 43 44  2  0
 68 43  1  0
 44 45  1  0
 44 50  1  0
 45 63  1  0
 46 47  1  0
 63 46  1  0
 47 64  1  0
 48 49  1  0
 64 48  1  0
 48 67  2  0
 50 51  2  0
 51 52  1  0
 54 53  1  0
 53 68  1  0
 55 54  2  0
 54 58  1  0
 65 55  1  0
 56 57  1  0
 56 65  2  0
 57 58  2  0
 57 59  1  0
 59 66  3  0
 60 61  2  0
 60 62  1  0
M  CHG  2   1   1  63   1
M  END
$$$$
