
     RDKit          3D

 68 73  0  0  0  0  0  0  0  0999 V2000
   -4.9438  -28.5993   -5.8224 N   0  0  0  0  0  4  0  0  0  0  0  0
   -7.2633  -23.9924   -2.7328 N   0  0  0  0  0  0  0  0  0  0  0  0
   -3.5974  -28.5834   -5.3982 C   0  0  0  0  0  0  0  0  0  0  0  0
   -2.5607  -28.3463   -6.4364 C   0  0  0  0  0  0  0  0  0  0  0  0
   -2.2276  -27.0617   -6.8044 C   0  0  0  0  0  0  0  0  0  0  0  0
   -2.4427  -24.6055   -6.3405 C   0  0  0  0  0  0  0  0  0  0  0  0
   -3.6939  -23.8007   -6.0381 C   0  0  0  0  0  0  0  0  0  0  0  0
   -5.9540  -22.2490   -5.6293 C   0  0  0  0  0  0  0  0  0  0  0  0
   -6.5130  -23.6285   -3.6465 C   0  0  0  0  0  0  0  0  0  0  0  0
   -0.5957  -27.9922   -8.3440 C   0  0  0  0  0  0  0  0  0  0  0  0
   -8.1434  -27.8124   -4.1658 C   0  0  0  0  0  0  0  0  0  0  0  0
   -5.6348  -23.2202   -4.7337 C   0  0  0  0  0  0  0  0  0  0  0  0
   -4.4796  -24.0004   -4.9528 C   0  0  0  0  0  0  0  0  0  0  0  0
   -1.2304  -26.8656   -7.7694 C   0  0  0  0  0  0  0  0  0  0  0  0
    0.1464  -27.1366  -10.5411 C   0  0  0  0  0  0  0  0  0  0  0  0
   -7.0416  -27.3760   -6.4070 C   0  0  0  0  0  0  0  0  0  0  0  0
   -5.5855  -27.3587   -6.0727 C   0  0  0  0  0  0  0  0  0  0  0  0
   -4.0438  -22.8125   -6.9297 C   0  0  0  0  0  0  0  0  0  0  0  0
   -5.1497  -22.0572   -6.7207 N   0  0  0  0  0  0  0  0  0  0  0  0
   -2.8275  -25.9396   -6.2716 O   0  0  0  0  0  0  0  0  0  0  0  0
    0.3538  -27.8012   -9.2977 O   0  0  0  0  0  0  0  0  0  0  0  0
    2.1795  -26.3007  -18.9883 O   0  0  0  0  0  0  0  0  0  0  0  0
   -7.8658  -28.1624   -5.5418 N   0  0  0  0  0  0  0  0  0  0  0  0
   -9.1981  -28.4937   -3.4225 C   0  0  0  0  0  0  0  0  0  0  0  0
   -7.4142  -26.9058   -3.7234 O   0  0  0  0  0  0  0  0  0  0  0  0
    1.5138  -26.8972  -11.1043 C   0  0  0  0  0  0  0  0  0  0  0  0
    2.7335  -27.3292  -10.4287 C   0  0  0  0  0  0  0  0  0  0  0  0
    3.8667  -27.0845  -11.1847 C   0  0  0  0  0  0  0  0  0  0  0  0
    4.0205  -26.5505  -12.3704 C   0  0  0  0  0  0  0  0  0  0  0  0
    2.8023  -26.1031  -13.0790 C   0  0  0  0  0  0  0  0  0  0  0  0
    1.7150  -26.3654  -12.2924 C   0  0  0  0  0  0  0  0  0  0  0  0
    0.4055  -25.9747  -13.0557 C   0  0  0  0  0  0  0  0  0  0  0  0
    2.8323  -25.6081  -14.4098 C   0  0  0  0  0  0  0  0  0  0  0  0
    3.2115  -24.2239  -14.5931 C   0  0  0  0  0  0  0  0  0  0  0  0
    3.4479  -23.7338  -15.8342 C   0  0  0  0  0  0  0  0  0  0  0  0
    3.3417  -24.5020  -16.9821 C   0  0  0  0  0  0  0  0  0  0  0  0
    2.9792  -25.8049  -16.8114 C   0  0  0  0  0  0  0  0  0  0  0  0
    2.7277  -26.3414  -15.5402 C   0  0  0  0  0  0  0  0  0  0  0  0
    2.3092  -27.7465  -15.3957 C   0  0  0  0  0  0  0  0  0  0  0  0
    2.7982  -26.7208  -17.9951 C   0  0  0  0  0  0  0  0  0  0  0  0
    1.5536  -25.8555  -20.0447 C   0  0  0  0  0  0  0  0  0  0  0  0
    2.0063  -26.1972  -21.3442 C   0  0  0  0  0  0  0  0  0  0  0  0
    1.4316  -25.7374  -22.4847 C   0  0  0  0  0  0  0  0  0  0  0  0
    0.3294  -24.8642  -22.3675 C   0  0  0  0  0  0  0  0  0  0  0  0
   -0.2124  -24.1733  -23.5316 C   0  0  0  0  0  0  0  0  0  0  0  0
    0.5152  -22.7566  -25.3693 C   0  0  0  0  0  0  0  0  0  0  0  0
    1.7223  -22.9123  -26.3022 C   0  0  0  0  0  0  0  0  0  0  0  0
    3.2676  -21.3216  -25.1693 C   0  0  0  0  0  0  0  0  0  0  0  0
    3.1945  -20.8847  -23.7802 C   0  0  0  0  0  0  0  0  0  0  0  0
   -0.1488  -24.5163  -21.0830 C   0  0  0  0  0  0  0  0  0  0  0  0
    0.4330  -24.9953  -19.9629 C   0  0  0  0  0  0  0  0  0  0  0  0
   -0.1337  -24.7018  -18.6291 C   0  0  0  0  0  0  0  0  0  0  0  0
    2.1370  -26.7490  -24.7321 C   0  0  0  0  0  0  0  0  0  0  0  0
    1.9487  -25.5904  -25.9163 C   0  0  0  0  0  0  0  0  0  0  0  0
    2.9012  -24.7158  -25.7962 C   0  0  0  0  0  0  0  0  0  0  0  0
    2.0272  -24.1464  -27.8303 C   0  0  0  0  0  0  0  0  0  0  0  0
    1.1093  -24.9284  -28.0239 C   0  0  0  0  0  0  0  0  0  0  0  0
    0.9959  -25.9533  -26.7344 C   0  0  0  0  0  0  0  0  0  0  0  0
    0.1650  -25.2424  -28.9792 C   0  0  0  0  0  0  0  0  0  0  0  0
   -0.9651  -29.2386   -7.9509 C   0  0  0  0  0  0  0  0  0  0  0  0
   -1.9474  -29.4899   -6.9972 C   0  0  0  0  0  0  0  0  0  0  0  0
   -0.2812  -30.4764   -8.5040 C   0  0  0  0  0  0  0  0  0  0  0  0
    0.8313  -23.2830  -24.0778 N   0  0  0  0  0  4  0  0  0  0  0  0
    2.9184  -22.6666  -25.5625 N   0  0  0  0  0  0  0  0  0  0  0  0
    2.9908  -23.7701  -27.0036 N   0  0  0  0  0  0  0  0  0  0  0  0
   -0.6763  -25.5090  -29.8510 N   0  0  0  0  0  0  0  0  0  0  0  0
    3.6443  -20.5160  -26.1088 O   0  0  0  0  0  0  0  0  0  0  0  0
    1.8554  -26.0887  -23.6544 O   0  0  0  0  0  0  0  0  0  0  0  0
  3  1  1  0
  1 17  1  0
  9  2  3  0
  4  3  1  0
  5  4  2  0
  4 61  1  0
 14  5  1  0
  5 20  1  0
  6  7  1  0
 20  6  1  0
  7 13  2  0
  7 18  1  0
 12  8  2  0
 19  8  1  0
 12  9  1  0
 10 14  2  0
 21 10  1  0
 10 60  1  0
 23 11  1  0
 11 24  1  0
 11 25  2  0
 13 12  1  0
 15 21  1  0
 26 15  1  0
 17 16  1  0
 16 23  1  0
 18 19  2  0
 22 40  1  0
 41 22  1  0
 26 27  2  0
 31 26  1  0
 28 27  1  0
 29 28  2  0
 30 29  1  0
 30 31  2  0
 33 30  1  0
 31 32  1  0
 33 34  2  0
 38 33  1  0
 35 34  1  0
 36 35  2  0
 37 36  1  0
 37 38  2  0
 40 37  1  0
 38 39  1  0
 42 41  2  0
 41 51  1  0
 43 42  1  0
 43 44  2  0
 68 43  1  0
 44 45  1  0
 44 50  1  0
 45 63  1  0
 46 47  1  0
 63 46  1  0
 47 64  1  0
 48 49  1  0
 64 48  1  0
 48 67  2  0
 50 51  2  0
 51 52  1  0
 54 53  1  0
 53 68  1  0
 55 54  2  0
 54 58  1  0
 65 55  1  0
 56 57  1  0
 56 65  2  0
 57 58  2  0
 57 59  1  0
 59 66  3  0
 60 61  2  0
 60 62  1  0
M  CHG  2   1   1  63   1
M  END
$$$$
