
     RDKit          3D

 68 73  0  0  0  0  0  0  0  0999 V2000
    4.7032  -23.4495  -23.9176 N   0  0  0  0  0  4  0  0  0  0  0  0
   10.8515  -21.6414  -21.6588 N   0  0  0  0  0  0  0  0  0  0  0  0
    3.9349  -22.5495  -23.1479 C   0  0  0  0  0  0  0  0  0  0  0  0
    2.9484  -23.1343  -22.2025 C   0  0  0  0  0  0  0  0  0  0  0  0
    3.3570  -23.5990  -20.9722 C   0  0  0  0  0  0  0  0  0  0  0  0
    5.6484  -24.5623  -20.6314 C   0  0  0  0  0  0  0  0  0  0  0  0
    6.8946  -23.9554  -20.0123 C   0  0  0  0  0  0  0  0  0  0  0  0
    9.1239  -22.9143  -18.7359 C   0  0  0  0  0  0  0  0  0  0  0  0
    9.9904  -22.1460  -20.9280 C   0  0  0  0  0  0  0  0  0  0  0  0
    1.0460  -24.1692  -20.4893 C   0  0  0  0  0  0  0  0  0  0  0  0
    3.7624  -21.2040  -28.2343 C   0  0  0  0  0  0  0  0  0  0  0  0
    8.9630  -22.7210  -20.0715 C   0  0  0  0  0  0  0  0  0  0  0  0
    7.8216  -23.2540  -20.7076 C   0  0  0  0  0  0  0  0  0  0  0  0
    2.4029  -24.1247  -20.0905 C   0  0  0  0  0  0  0  0  0  0  0  0
    0.0605  -26.0725  -19.2581 C   0  0  0  0  0  0  0  0  0  0  0  0
    4.2254  -22.7256  -26.2600 C   0  0  0  0  0  0  0  0  0  0  0  0
    5.2061  -23.0066  -25.1685 C   0  0  0  0  0  0  0  0  0  0  0  0
    7.0858  -24.1382  -18.6618 C   0  0  0  0  0  0  0  0  0  0  0  0
    8.1779  -23.6238  -18.0455 N   0  0  0  0  0  0  0  0  0  0  0  0
    4.6703  -23.5778  -20.5504 O   0  0  0  0  0  0  0  0  0  0  0  0
    0.1253  -24.7021  -19.6431 O   0  0  0  0  0  0  0  0  0  0  0  0
   -1.3024  -26.7509  -10.0740 O   0  0  0  0  0  0  0  0  0  0  0  0
    4.6461  -21.7715  -27.2394 N   0  0  0  0  0  0  0  0  0  0  0  0
    3.9972  -21.4327  -29.6560 C   0  0  0  0  0  0  0  0  0  0  0  0
    2.8329  -20.5308  -27.7520 O   0  0  0  0  0  0  0  0  0  0  0  0
   -1.1193  -26.1792  -18.3409 C   0  0  0  0  0  0  0  0  0  0  0  0
   -2.4930  -25.9845  -18.7945 C   0  0  0  0  0  0  0  0  0  0  0  0
   -3.4158  -26.2283  -17.7922 C   0  0  0  0  0  0  0  0  0  0  0  0
   -3.2654  -26.5973  -16.5448 C   0  0  0  0  0  0  0  0  0  0  0  0
   -1.8847  -26.8020  -16.0569 C   0  0  0  0  0  0  0  0  0  0  0  0
   -1.0147  -26.5485  -17.0809 C   0  0  0  0  0  0  0  0  0  0  0  0
    0.4504  -26.8372  -16.6117 C   0  0  0  0  0  0  0  0  0  0  0  0
   -1.6008  -27.3033  -14.7589 C   0  0  0  0  0  0  0  0  0  0  0  0
   -1.0842  -28.6516  -14.6680 C   0  0  0  0  0  0  0  0  0  0  0  0
   -0.6122  -29.1298  -13.4912 C   0  0  0  0  0  0  0  0  0  0  0  0
   -0.5957  -28.3826  -12.3249 C   0  0  0  0  0  0  0  0  0  0  0  0
   -1.0871  -27.1139  -12.4076 C   0  0  0  0  0  0  0  0  0  0  0  0
   -1.5827  -26.5906  -13.6107 C   0  0  0  0  0  0  0  0  0  0  0  0
   -2.1334  -25.2248  -13.6566 C   0  0  0  0  0  0  0  0  0  0  0  0
   -1.1507  -26.2261  -11.1908 C   0  0  0  0  0  0  0  0  0  0  0  0
   -1.4751  -27.2796   -8.8922 C   0  0  0  0  0  0  0  0  0  0  0  0
   -2.7270  -27.1745   -8.2349 C   0  0  0  0  0  0  0  0  0  0  0  0
   -2.9652  -27.6619   -6.9907 C   0  0  0  0  0  0  0  0  0  0  0  0
   -1.9043  -28.2991   -6.3129 C   0  0  0  0  0  0  0  0  0  0  0  0
   -2.0211  -28.6675   -4.9069 C   0  0  0  0  0  0  0  0  0  0  0  0
   -2.7657  -27.5543   -2.8772 C   0  0  0  0  0  0  0  0  0  0  0  0
   -2.6466  -26.2569   -2.0684 C   0  0  0  0  0  0  0  0  0  0  0  0
   -0.7338  -25.3037   -0.7898 C   0  0  0  0  0  0  0  0  0  0  0  0
    0.6643  -25.4797   -0.4154 C   0  0  0  0  0  0  0  0  0  0  0  0
   -0.6486  -28.4268   -6.9504 C   0  0  0  0  0  0  0  0  0  0  0  0
   -0.4390  -27.9433   -8.1933 C   0  0  0  0  0  0  0  0  0  0  0  0
    0.8477  -28.1665   -8.8868 C   0  0  0  0  0  0  0  0  0  0  0  0
   -5.1172  -27.6223   -5.5981 C   0  0  0  0  0  0  0  0  0  0  0  0
   -6.0849  -26.3691   -6.1205 C   0  0  0  0  0  0  0  0  0  0  0  0
   -5.8002  -25.3084   -5.4274 C   0  0  0  0  0  0  0  0  0  0  0  0
   -7.0934  -24.4204   -7.0902 C   0  0  0  0  0  0  0  0  0  0  0  0
   -7.4126  -25.3636   -7.7972 C   0  0  0  0  0  0  0  0  0  0  0  0
   -6.7523  -26.7452   -7.1798 C   0  0  0  0  0  0  0  0  0  0  0  0
   -8.1186  -25.6355   -8.9507 C   0  0  0  0  0  0  0  0  0  0  0  0
    0.6956  -23.7036  -21.7162 C   0  0  0  0  0  0  0  0  0  0  0  0
    1.6013  -23.1711  -22.6294 C   0  0  0  0  0  0  0  0  0  0  0  0
   -0.7531  -23.6873  -22.1707 C   0  0  0  0  0  0  0  0  0  0  0  0
   -2.0284  -27.4333   -4.0965 N   0  0  0  0  0  4  0  0  0  0  0  0
   -1.2733  -25.8724   -2.0028 N   0  0  0  0  0  0  0  0  0  0  0  0
   -6.4239  -24.0333   -6.0152 N   0  0  0  0  0  0  0  0  0  0  0  0
   -8.7485  -25.8601   -9.9955 N   0  0  0  0  0  0  0  0  0  0  0  0
   -1.5506  -24.6331   -0.0437 O   0  0  0  0  0  0  0  0  0  0  0  0
   -4.1266  -27.5700   -6.4305 O   0  0  0  0  0  0  0  0  0  0  0  0
  3  1  1  0
  1 17  1  0
  9  2  3  0
  4  3  1  0
  5  4  2  0
  4 61  1  0
 14  5  1  0
  5 20  1  0
  6  7  1  0
 20  6  1  0
  7 13  2  0
  7 18  1  0
 12  8  2  0
 19  8  1  0
 12  9  1  0
 10 14  2  0
 21 10  1  0
 10 60  1  0
 23 11  1  0
 11 24  1  0
 11 25  2  0
 13 12  1  0
 15 21  1  0
 26 15  1  0
 17 16  1  0
 16 23  1  0
 18 19  2  0
 22 40  1  0
 41 22  1  0
 26 27  2  0
 31 26  1  0
 28 27  1  0
 29 28  2  0
 30 29  1  0
 30 31  2  0
 33 30  1  0
 31 32  1  0
 33 34  2  0
 38 33  1  0
 35 34  1  0
 36 35  2  0
 37 36  1  0
 37 38  2  0
 40 37  1  0
 38 39  1  0
 42 41  2  0
 41 51  1  0
 43 42  1  0
 43 44  2  0
 68 43  1  0
 44 45  1  0
 44 50  1  0
 45 63  1  0
 46 47  1  0
 63 46  1  0
 47 64  1  0
 48 49  1  0
 64 48  1  0
 48 67  2  0
 50 51  2  0
 51 52  1  0
 54 53  1  0
 53 68  1  0
 55 54  2  0
 54 58  1  0
 65 55  1  0
 56 57  1  0
 56 65  2  0
 57 58  2  0
 57 59  1  0
 59 66  3  0
 60 61  2  0
 60 62  1  0
M  CHG  2   1   1  63   1
M  END
$$$$
