
     RDKit          3D

 68 73  0  0  0  0  0  0  0  0999 V2000
    2.9019  -24.2010  -24.6410 N   0  0  0  0  0  4  0  0  0  0  0  0
    8.8620  -20.6485  -21.0950 N   0  0  0  0  0  0  0  0  0  0  0  0
    2.9633  -23.4364  -23.4558 C   0  0  0  0  0  0  0  0  0  0  0  0
    1.9405  -23.7147  -22.4140 C   0  0  0  0  0  0  0  0  0  0  0  0
    2.3192  -23.9133  -21.1048 C   0  0  0  0  0  0  0  0  0  0  0  0
    4.5760  -24.9129  -20.6552 C   0  0  0  0  0  0  0  0  0  0  0  0
    5.8197  -24.3057  -20.0312 C   0  0  0  0  0  0  0  0  0  0  0  0
    8.0926  -23.3250  -18.7843 C   0  0  0  0  0  0  0  0  0  0  0  0
    8.2652  -21.5732  -20.5301 C   0  0  0  0  0  0  0  0  0  0  0  0
   -0.0256  -24.1863  -20.5332 C   0  0  0  0  0  0  0  0  0  0  0  0
    1.5324  -24.9231  -28.6177 C   0  0  0  0  0  0  0  0  0  0  0  0
    7.5835  -22.6729  -19.8625 C   0  0  0  0  0  0  0  0  0  0  0  0
    6.4240  -23.1818  -20.4855 C   0  0  0  0  0  0  0  0  0  0  0  0
    1.3327  -24.1512  -20.1382 C   0  0  0  0  0  0  0  0  0  0  0  0
   -0.9218  -25.4863  -18.6314 C   0  0  0  0  0  0  0  0  0  0  0  0
    3.4572  -24.3457  -27.0719 C   0  0  0  0  0  0  0  0  0  0  0  0
    3.8012  -23.8862  -25.6926 C   0  0  0  0  0  0  0  0  0  0  0  0
    6.3597  -24.9468  -18.9397 C   0  0  0  0  0  0  0  0  0  0  0  0
    7.4702  -24.4589  -18.3350 N   0  0  0  0  0  0  0  0  0  0  0  0
    3.6323  -23.8924  -20.6828 O   0  0  0  0  0  0  0  0  0  0  0  0
   -0.9793  -24.4417  -19.5990 O   0  0  0  0  0  0  0  0  0  0  0  0
   -0.0189  -26.6361   -9.5634 O   0  0  0  0  0  0  0  0  0  0  0  0
    2.0601  -24.4083  -27.3729 N   0  0  0  0  0  0  0  0  0  0  0  0
    0.7415  -26.1490  -28.6408 C   0  0  0  0  0  0  0  0  0  0  0  0
    1.8257  -24.2307  -29.6097 O   0  0  0  0  0  0  0  0  0  0  0  0
   -1.4987  -24.9066  -17.3762 C   0  0  0  0  0  0  0  0  0  0  0  0
   -2.2959  -23.6839  -17.3642 C   0  0  0  0  0  0  0  0  0  0  0  0
   -2.7998  -23.3987  -16.1070 C   0  0  0  0  0  0  0  0  0  0  0  0
   -2.6872  -24.0269  -14.9636 C   0  0  0  0  0  0  0  0  0  0  0  0
   -1.8850  -25.2690  -14.9451 C   0  0  0  0  0  0  0  0  0  0  0  0
   -1.4110  -25.5047  -16.2059 C   0  0  0  0  0  0  0  0  0  0  0  0
   -0.6257  -26.8585  -16.2293 C   0  0  0  0  0  0  0  0  0  0  0  0
   -1.7790  -26.0915  -13.7924 C   0  0  0  0  0  0  0  0  0  0  0  0
   -2.5876  -27.2908  -13.7578 C   0  0  0  0  0  0  0  0  0  0  0  0
   -2.4018  -28.2182  -12.7874 C   0  0  0  0  0  0  0  0  0  0  0  0
   -1.4536  -28.0840  -11.7864 C   0  0  0  0  0  0  0  0  0  0  0  0
   -0.6947  -26.9520  -11.8145 C   0  0  0  0  0  0  0  0  0  0  0  0
   -0.8632  -25.9739  -12.8054 C   0  0  0  0  0  0  0  0  0  0  0  0
   -0.0450  -24.7489  -12.7877 C   0  0  0  0  0  0  0  0  0  0  0  0
    0.3416  -26.6868  -10.7521 C   0  0  0  0  0  0  0  0  0  0  0  0
   -0.3864  -26.6077   -8.3104 C   0  0  0  0  0  0  0  0  0  0  0  0
   -1.7048  -26.2233   -7.9576 C   0  0  0  0  0  0  0  0  0  0  0  0
   -2.1425  -26.1304   -6.6761 C   0  0  0  0  0  0  0  0  0  0  0  0
   -1.2307  -26.4238   -5.6401 C   0  0  0  0  0  0  0  0  0  0  0  0
   -1.5616  -26.1551   -4.2458 C   0  0  0  0  0  0  0  0  0  0  0  0
   -0.4981  -25.7570   -2.0953 C   0  0  0  0  0  0  0  0  0  0  0  0
   -1.3665  -26.9050   -1.5663 C   0  0  0  0  0  0  0  0  0  0  0  0
   -0.5044  -28.8791   -0.3167 C   0  0  0  0  0  0  0  0  0  0  0  0
    0.7516  -29.4673    0.1331 C   0  0  0  0  0  0  0  0  0  0  0  0
    0.0872  -26.8203   -5.9651 C   0  0  0  0  0  0  0  0  0  0  0  0
    0.4962  -26.9159   -7.2481 C   0  0  0  0  0  0  0  0  0  0  0  0
    1.8455  -27.4228   -7.5781 C   0  0  0  0  0  0  0  0  0  0  0  0
   -4.4237  -25.1654   -6.0151 C   0  0  0  0  0  0  0  0  0  0  0  0
   -5.6337  -26.2480   -6.3942 C   0  0  0  0  0  0  0  0  0  0  0  0
   -6.1739  -26.6696   -5.2911 C   0  0  0  0  0  0  0  0  0  0  0  0
   -7.6598  -27.4518   -6.8423 C   0  0  0  0  0  0  0  0  0  0  0  0
   -7.2206  -27.0978   -7.9255 C   0  0  0  0  0  0  0  0  0  0  0  0
   -5.8156  -26.2635   -7.6887 C   0  0  0  0  0  0  0  0  0  0  0  0
   -7.5358  -27.1485   -9.2675 C   0  0  0  0  0  0  0  0  0  0  0  0
   -0.3461  -23.9902  -21.8383 C   0  0  0  0  0  0  0  0  0  0  0  0
    0.5923  -23.7494  -22.8379 C   0  0  0  0  0  0  0  0  0  0  0  0
   -1.7918  -23.9723  -22.3026 C   0  0  0  0  0  0  0  0  0  0  0  0
   -0.3092  -25.9039   -3.5052 N   0  0  0  0  0  4  0  0  0  0  0  0
   -0.5876  -28.1009   -1.5305 N   0  0  0  0  0  0  0  0  0  0  0  0
   -7.4787  -27.4447   -5.5305 N   0  0  0  0  0  0  0  0  0  0  0  0
   -7.8200  -27.1723  -10.4748 N   0  0  0  0  0  0  0  0  0  0  0  0
   -1.5993  -29.0370    0.3539 O   0  0  0  0  0  0  0  0  0  0  0  0
   -3.3594  -25.8001   -6.3908 O   0  0  0  0  0  0  0  0  0  0  0  0
  3  1  1  0
  1 17  1  0
  9  2  3  0
  4  3  1  0
  5  4  2  0
  4 61  1  0
 14  5  1  0
  5 20  1  0
  6  7  1  0
 20  6  1  0
  7 13  2  0
  7 18  1  0
 12  8  2  0
 19  8  1  0
 12  9  1  0
 10 14  2  0
 21 10  1  0
 10 60  1  0
 23 11  1  0
 11 24  1  0
 11 25  2  0
 13 12  1  0
 15 21  1  0
 26 15  1  0
 17 16  1  0
 16 23  1  0
 18 19  2  0
 22 40  1  0
 41 22  1  0
 26 27  2  0
 31 26  1  0
 28 27  1  0
 29 28  2  0
 30 29  1  0
 30 31  2  0
 33 30  1  0
 31 32  1  0
 33 34  2  0
 38 33  1  0
 35 34  1  0
 36 35  2  0
 37 36  1  0
 37 38  2  0
 40 37  1  0
 38 39  1  0
 42 41  2  0
 41 51  1  0
 43 42  1  0
 43 44  2  0
 68 43  1  0
 44 45  1  0
 44 50  1  0
 45 63  1  0
 46 47  1  0
 63 46  1  0
 47 64  1  0
 48 49  1  0
 64 48  1  0
 48 67  2  0
 50 51  2  0
 51 52  1  0
 54 53  1  0
 53 68  1  0
 55 54  2  0
 54 58  1  0
 65 55  1  0
 56 57  1  0
 56 65  2  0
 57 58  2  0
 57 59  1  0
 59 66  3  0
 60 61  2  0
 60 62  1  0
M  CHG  2   1   1  63   1
M  END
$$$$
