
     RDKit          3D

 68 73  0  0  0  0  0  0  0  0999 V2000
    0.4788  -27.3599   -5.8202 N   0  0  0  0  0  4  0  0  0  0  0  0
    5.7360  -30.6645   -5.2874 N   0  0  0  0  0  0  0  0  0  0  0  0
    0.9011  -28.0139   -6.9977 C   0  0  0  0  0  0  0  0  0  0  0  0
    0.4924  -27.4115   -8.2935 C   0  0  0  0  0  0  0  0  0  0  0  0
    1.3695  -27.3868   -9.3550 C   0  0  0  0  0  0  0  0  0  0  0  0
    3.6273  -27.9724  -10.2788 C   0  0  0  0  0  0  0  0  0  0  0  0
    4.7929  -28.7093   -9.6439 C   0  0  0  0  0  0  0  0  0  0  0  0
    7.0115  -30.0180   -8.6203 C   0  0  0  0  0  0  0  0  0  0  0  0
    5.8039  -30.3397   -6.4791 C   0  0  0  0  0  0  0  0  0  0  0  0
   -0.3594  -26.3100  -10.6781 C   0  0  0  0  0  0  0  0  0  0  0  0
   -3.7752  -26.4727   -4.6592 C   0  0  0  0  0  0  0  0  0  0  0  0
    5.8775  -29.9353   -7.8758 C   0  0  0  0  0  0  0  0  0  0  0  0
    4.7546  -29.2687   -8.4109 C   0  0  0  0  0  0  0  0  0  0  0  0
    0.9510  -26.8334  -10.5727 C   0  0  0  0  0  0  0  0  0  0  0  0
   -0.1427  -25.9798  -13.1181 C   0  0  0  0  0  0  0  0  0  0  0  0
   -1.3147  -26.8308   -4.1642 C   0  0  0  0  0  0  0  0  0  0  0  0
   -0.8937  -27.4294   -5.4667 C   0  0  0  0  0  0  0  0  0  0  0  0
    5.9559  -28.8058  -10.3734 C   0  0  0  0  0  0  0  0  0  0  0  0
    7.0353  -29.4494   -9.8657 N   0  0  0  0  0  0  0  0  0  0  0  0
    2.6555  -27.8814   -9.2890 O   0  0  0  0  0  0  0  0  0  0  0  0
   -0.7557  -25.7512  -11.8521 O   0  0  0  0  0  0  0  0  0  0  0  0
    1.1609  -24.1357  -21.7400 O   0  0  0  0  0  0  0  0  0  0  0  0
   -2.4817  -26.0048   -4.2111 N   0  0  0  0  0  0  0  0  0  0  0  0
   -4.6220  -25.6309   -5.4977 C   0  0  0  0  0  0  0  0  0  0  0  0
   -4.0600  -27.6162   -4.2580 O   0  0  0  0  0  0  0  0  0  0  0  0
   -1.1851  -25.6399  -14.1390 C   0  0  0  0  0  0  0  0  0  0  0  0
   -2.4616  -25.0239  -13.7901 C   0  0  0  0  0  0  0  0  0  0  0  0
   -3.2182  -24.7158  -14.9074 C   0  0  0  0  0  0  0  0  0  0  0  0
   -2.9837  -24.8763  -16.1857 C   0  0  0  0  0  0  0  0  0  0  0  0
   -1.6982  -25.4982  -16.5695 C   0  0  0  0  0  0  0  0  0  0  0  0
   -0.9916  -25.7831  -15.4340 C   0  0  0  0  0  0  0  0  0  0  0  0
    0.4086  -26.3682  -15.8173 C   0  0  0  0  0  0  0  0  0  0  0  0
   -1.2870  -25.6268  -17.9226 C   0  0  0  0  0  0  0  0  0  0  0  0
   -2.0484  -26.5244  -18.7638 C   0  0  0  0  0  0  0  0  0  0  0  0
   -1.8397  -26.5562  -20.1024 C   0  0  0  0  0  0  0  0  0  0  0  0
   -0.9058  -25.7561  -20.7400 C   0  0  0  0  0  0  0  0  0  0  0  0
   -0.1838  -24.9137  -19.9481 C   0  0  0  0  0  0  0  0  0  0  0  0
   -0.3763  -24.8580  -18.5601 C   0  0  0  0  0  0  0  0  0  0  0  0
    0.4427  -23.9563  -17.7314 C   0  0  0  0  0  0  0  0  0  0  0  0
    0.8848  -24.0253  -20.5328 C   0  0  0  0  0  0  0  0  0  0  0  0
    1.4651  -24.2280  -23.0068 C   0  0  0  0  0  0  0  0  0  0  0  0
    0.4932  -23.9485  -24.0005 C   0  0  0  0  0  0  0  0  0  0  0  0
    0.7262  -24.0647  -25.3327 C   0  0  0  0  0  0  0  0  0  0  0  0
    2.0037  -24.4965  -25.7480 C   0  0  0  0  0  0  0  0  0  0  0  0
    2.2686  -24.8371  -27.1408 C   0  0  0  0  0  0  0  0  0  0  0  0
    3.0842  -22.6114  -27.6839 C   0  0  0  0  0  0  0  0  0  0  0  0
    4.1829  -21.8728  -28.4578 C   0  0  0  0  0  0  0  0  0  0  0  0
    5.2040  -23.4337  -30.1080 C   0  0  0  0  0  0  0  0  0  0  0  0
    5.6823  -22.7444  -31.3003 C   0  0  0  0  0  0  0  0  0  0  0  0
    2.9947  -24.7712  -24.7774 C   0  0  0  0  0  0  0  0  0  0  0  0
    2.7422  -24.6378  -23.4579 C   0  0  0  0  0  0  0  0  0  0  0  0
    3.8128  -24.8352  -22.4572 C   0  0  0  0  0  0  0  0  0  0  0  0
   -0.8615  -23.2228  -27.1608 C   0  0  0  0  0  0  0  0  0  0  0  0
   -2.4115  -23.7373  -26.8251 C   0  0  0  0  0  0  0  0  0  0  0  0
   -2.6324  -23.5870  -25.5542 C   0  0  0  0  0  0  0  0  0  0  0  0
   -4.7401  -24.0237  -26.3244 C   0  0  0  0  0  0  0  0  0  0  0  0
   -4.6228  -24.1838  -27.5294 C   0  0  0  0  0  0  0  0  0  0  0  0
   -3.0344  -24.0046  -27.9430 C   0  0  0  0  0  0  0  0  0  0  0  0
   -5.3907  -24.4365  -28.6472 C   0  0  0  0  0  0  0  0  0  0  0  0
   -1.1838  -26.3530   -9.5996 C   0  0  0  0  0  0  0  0  0  0  0  0
   -0.8199  -26.8914   -8.3685 C   0  0  0  0  0  0  0  0  0  0  0  0
   -2.6133  -25.8467   -9.6772 C   0  0  0  0  0  0  0  0  0  0  0  0
    3.3905  -24.0069  -27.6227 N   0  0  0  0  0  4  0  0  0  0  0  0
    5.2094  -22.8004  -28.8101 N   0  0  0  0  0  0  0  0  0  0  0  0
   -4.1145  -23.7588  -25.1876 N   0  0  0  0  0  0  0  0  0  0  0  0
   -6.0993  -24.6604  -29.6404 N   0  0  0  0  0  0  0  0  0  0  0  0
    4.7485  -24.6431  -30.1675 O   0  0  0  0  0  0  0  0  0  0  0  0
   -0.1762  -23.7782  -26.2129 O   0  0  0  0  0  0  0  0  0  0  0  0
  3  1  1  0
  1 17  1  0
  9  2  3  0
  4  3  1  0
  5  4  2  0
  4 61  1  0
 14  5  1  0
  5 20  1  0
  6  7  1  0
 20  6  1  0
  7 13  2  0
  7 18  1  0
 12  8  2  0
 19  8  1  0
 12  9  1  0
 10 14  2  0
 21 10  1  0
 10 60  1  0
 23 11  1  0
 11 24  1  0
 11 25  2  0
 13 12  1  0
 15 21  1  0
 26 15  1  0
 17 16  1  0
 16 23  1  0
 18 19  2  0
 22 40  1  0
 41 22  1  0
 26 27  2  0
 31 26  1  0
 28 27  1  0
 29 28  2  0
 30 29  1  0
 30 31  2  0
 33 30  1  0
 31 32  1  0
 33 34  2  0
 38 33  1  0
 35 34  1  0
 36 35  2  0
 37 36  1  0
 37 38  2  0
 40 37  1  0
 38 39  1  0
 42 41  2  0
 41 51  1  0
 43 42  1  0
 43 44  2  0
 68 43  1  0
 44 45  1  0
 44 50  1  0
 45 63  1  0
 46 47  1  0
 63 46  1  0
 47 64  1  0
 48 49  1  0
 64 48  1  0
 48 67  2  0
 50 51  2  0
 51 52  1  0
 54 53  1  0
 53 68  1  0
 55 54  2  0
 54 58  1  0
 65 55  1  0
 56 57  1  0
 56 65  2  0
 57 58  2  0
 57 59  1  0
 59 66  3  0
 60 61  2  0
 60 62  1  0
M  CHG  2   1   1  63   1
M  END
$$$$
