
     RDKit          3D

 27 32  0  0  0  0  0  0  0  0999 V2000
   24.3737   67.3261  142.7899 C   0  0  1  0  0  0  0  0  0  0  0  0
   24.5851   65.8048  142.6673 C   0  0  0  0  0  0  0  0  0  0  0  0
   24.8458   67.7079  144.1432 C   0  0  0  0  0  0  0  0  0  0  0  0
   25.0750   67.9284  141.6301 C   0  0  2  0  0  0  0  0  0  0  0  0
   26.5792   67.7394  141.6401 C   0  0  0  0  0  0  0  0  0  0  0  0
   24.7202   69.3499  141.3148 C   0  0  2  0  0  0  0  0  0  0  0  0
   23.3447   69.7690  141.6609 C   0  0  0  0  0  0  0  0  0  0  0  0
   24.9999   69.5160  139.8794 N   0  0  0  0  0  0  0  0  0  0  0  0
   26.3331   69.1173  139.5693 C   0  0  0  0  0  0  0  0  0  0  0  0
   27.1512   68.8228  140.8033 C   0  0  2  0  0  0  0  0  0  0  0  0
   28.5962   68.7398  140.5061 C   0  0  0  0  0  0  0  0  0  0  0  0
   27.6912   70.9884  140.7054 C   0  0  0  0  0  0  0  0  0  0  0  0
   18.3625   67.8022  142.1479 C   0  0  0  0  0  0  0  0  0  0  0  0
   19.3858   66.9810  142.5776 C   0  0  0  0  0  0  0  0  0  0  0  0
   20.7051   67.3728  142.5040 C   0  0  0  0  0  0  0  0  0  0  0  0
   21.0591   68.6166  141.9918 C   0  0  0  0  0  0  0  0  0  0  0  0
   20.0246   69.4275  141.5659 C   0  0  0  0  0  0  0  0  0  0  0  0
   18.7038   69.0373  141.6386 C   0  0  0  0  0  0  0  0  0  0  0  0
   22.4209   68.7054  142.0525 C   0  0  0  0  0  0  0  0  0  0  0  0
   22.9164   67.5401  142.5924 C   0  0  0  0  0  0  0  0  0  0  0  0
   28.9242   70.2051  140.2303 C   0  0  0  0  0  0  0  0  0  0  0  0
   25.7165   70.3424  141.9397 C   0  0  0  0  0  0  0  0  0  0  0  0
   27.0724   70.0566  141.6034 N   0  0  1  0  0  4  0  0  0  0  0  0
   21.8370   66.7772  142.8439 N   0  0  0  0  0  0  0  0  0  0  0  0
   26.7893   69.0173  138.4195 O   0  0  0  0  0  0  0  0  0  0  0  0
   16.5317   67.2496  142.2538 Br  0  0  0  0  0  0  0  0  0  0  0  0
   17.4470   70.0947  141.0899 Cl  0  0  0  0  0  0  0  0  0  0  0  0
  1  2  1  6
  1  3  1  0
  4  1  1  0
  1 20  1  0
  4  5  1  1
  6  4  1  0
  5 10  1  0
  6  7  1  6
  6  8  1  0
  6 22  1  0
 19  7  1  0
  8  9  1  0
  9 10  1  0
  9 25  2  0
 10 11  1  6
 10 23  1  0
 11 21  1  0
 12 21  1  0
 23 12  1  6
 14 13  2  0
 13 18  1  0
 13 26  1  0
 15 14  1  0
 16 15  2  0
 15 24  1  0
 16 17  1  0
 16 19  1  0
 17 18  2  0
 18 27  1  0
 19 20  2  0
 20 24  1  0
 22 23  1  0
M  CHG  1  23   1
M  END
$$$$
