
     RDKit          3D

 27 32  0  0  0  0  0  0  0  0999 V2000
    1.0416   61.2613  112.4161 C   0  0  1  0  0  0  0  0  0  0  0  0
    1.3622   60.6446  113.7913 C   0  0  0  0  0  0  0  0  0  0  0  0
    0.2625   60.2428  111.6706 C   0  0  0  0  0  0  0  0  0  0  0  0
    0.3748   62.5559  112.6971 C   0  0  2  0  0  0  0  0  0  0  0  0
   -0.9661   62.4320  113.3937 C   0  0  0  0  0  0  0  0  0  0  0  0
    0.2897   63.5132  111.5472 C   0  0  2  0  0  0  0  0  0  0  0  0
    1.3790   63.4305  110.5502 C   0  0  0  0  0  0  0  0  0  0  0  0
    0.2020   64.8509  112.1547 N   0  0  0  0  0  0  0  0  0  0  0  0
   -0.8601   64.9124  113.1037 C   0  0  0  0  0  0  0  0  0  0  0  0
   -1.7212   63.6725  113.0900 C   0  0  2  0  0  0  0  0  0  0  0  0
   -2.9930   63.8703  113.8157 C   0  0  0  0  0  0  0  0  0  0  0  0
   -2.9178   64.7759  111.5598 C   0  0  0  0  0  0  0  0  0  0  0  0
    6.5867   62.1539  110.1299 C   0  0  0  0  0  0  0  0  0  0  0  0
    5.8345   61.3691  110.9810 C   0  0  0  0  0  0  0  0  0  0  0  0
    4.4889   61.5973  111.1729 C   0  0  0  0  0  0  0  0  0  0  0  0
    3.8330   62.6316  110.5138 C   0  0  0  0  0  0  0  0  0  0  0  0
    4.5985   63.4085  109.6655 C   0  0  0  0  0  0  0  0  0  0  0  0
    5.9451   63.1820  109.4720 C   0  0  0  0  0  0  0  0  0  0  0  0
    2.5258   62.5973  110.9089 C   0  0  0  0  0  0  0  0  0  0  0  0
    2.3602   61.5613  111.8000 C   0  0  0  0  0  0  0  0  0  0  0  0
   -3.7346   64.8021  112.8604 C   0  0  0  0  0  0  0  0  0  0  0  0
   -1.0623   63.4166  110.8186 C   0  0  0  0  0  0  0  0  0  0  0  0
   -2.1785   63.5542  111.6952 N   0  0  1  0  0  4  0  0  0  0  0  0
    3.5757   60.9966  111.9190 N   0  0  0  0  0  0  0  0  0  0  0  0
   -1.0703   65.8695  113.8652 O   0  0  0  0  0  0  0  0  0  0  0  0
    8.4564   61.8298  109.8692 Br  0  0  0  0  0  0  0  0  0  0  0  0
    6.8565   64.1874  108.3964 Cl  0  0  0  0  0  0  0  0  0  0  0  0
  1  2  1  1
  1  3  1  0
  4  1  1  0
  1 20  1  0
  4  5  1  6
  6  4  1  0
  5 10  1  0
  6  7  1  6
  6  8  1  0
  6 22  1  0
 19  7  1  0
  8  9  1  0
  9 10  1  0
  9 25  2  0
 10 11  1  1
 10 23  1  0
 11 21  1  0
 12 21  1  0
 23 12  1  6
 14 13  2  0
 13 18  1  0
 13 26  1  0
 15 14  1  0
 16 15  2  0
 15 24  1  0
 16 17  1  0
 16 19  1  0
 17 18  2  0
 18 27  1  0
 19 20  2  0
 20 24  1  0
 22 23  1  0
M  CHG  1  23   1
M  END
$$$$
