
     RDKit          3D

 27 32  0  0  0  0  0  0  0  0999 V2000
    1.0782   62.2785  111.9639 C   0  0  1  0  0  0  0  0  0  0  0  0
    0.0839   61.7820  110.8966 C   0  0  0  0  0  0  0  0  0  0  0  0
    0.5251   63.5484  112.4945 C   0  0  0  0  0  0  0  0  0  0  0  0
    1.2420   61.1563  112.9197 C   0  0  2  0  0  0  0  0  0  0  0  0
   -0.0146   60.8003  113.6897 C   0  0  0  0  0  0  0  0  0  0  0  0
    2.4216   61.2450  113.8397 C   0  0  2  0  0  0  0  0  0  0  0  0
    3.6035   61.9626  113.3146 C   0  0  0  0  0  0  0  0  0  0  0  0
    2.7408   59.8555  114.2053 N   0  0  0  0  0  0  0  0  0  0  0  0
    1.5919   59.1857  114.7191 C   0  0  0  0  0  0  0  0  0  0  0  0
    0.4246   60.1190  114.9322 C   0  0  2  0  0  0  0  0  0  0  0  0
   -0.6326   59.5068  115.7633 C   0  0  0  0  0  0  0  0  0  0  0  0
    1.2826   60.3855  116.9777 C   0  0  0  0  0  0  0  0  0  0  0  0
    6.1231   63.0667  108.6930 C   0  0  0  0  0  0  0  0  0  0  0  0
    4.7432   63.0746  108.6508 C   0  0  0  0  0  0  0  0  0  0  0  0
    3.9853   62.8067  109.7703 C   0  0  0  0  0  0  0  0  0  0  0  0
    4.5835   62.5164  110.9920 C   0  0  0  0  0  0  0  0  0  0  0  0
    5.9650   62.5121  111.0189 C   0  0  0  0  0  0  0  0  0  0  0  0
    6.7252   62.7799  109.8999 C   0  0  0  0  0  0  0  0  0  0  0  0
    3.5789   62.3004  111.8921 C   0  0  0  0  0  0  0  0  0  0  0  0
    2.3704   62.4514  111.2507 C   0  0  0  0  0  0  0  0  0  0  0  0
    0.0403   59.4958  117.1337 C   0  0  0  0  0  0  0  0  0  0  0  0
    2.0407   61.8431  115.2055 C   0  0  0  0  0  0  0  0  0  0  0  0
    0.9471   61.1684  115.8236 N   0  0  1  0  0  4  0  0  0  0  0  0
    2.6791   62.7554  109.9769 N   0  0  0  0  0  0  0  0  0  0  0  0
    1.5373   57.9715  114.9697 O   0  0  0  0  0  0  0  0  0  0  0  0
    7.1687   63.4402  107.1322 Br  0  0  0  0  0  0  0  0  0  0  0  0
    8.4544   62.7608  109.9910 Cl  0  0  0  0  0  0  0  0  0  0  0  0
  1  2  1  6
  1  3  1  0
  4  1  1  0
  1 20  1  0
  4  5  1  1
  6  4  1  0
  5 10  1  0
  6  7  1  6
  6  8  1  0
  6 22  1  0
 19  7  1  0
  8  9  1  0
  9 10  1  0
  9 25  2  0
 10 11  1  1
 10 23  1  0
 11 21  1  0
 12 21  1  0
 23 12  1  1
 14 13  2  0
 13 18  1  0
 13 26  1  0
 15 14  1  0
 16 15  2  0
 15 24  1  0
 16 17  1  0
 16 19  1  0
 17 18  2  0
 18 27  1  0
 19 20  2  0
 20 24  1  0
 22 23  1  0
M  CHG  1  23   1
M  END
$$$$
