
     RDKit          3D

 27 32  0  0  0  0  0  0  0  0999 V2000
    1.8854   61.0503  113.5233 C   0  0  1  0  0  0  0  0  0  0  0  0
    2.2056   61.4529  114.9757 C   0  0  0  0  0  0  0  0  0  0  0  0
    1.6336   59.5886  113.5386 C   0  0  0  0  0  0  0  0  0  0  0  0
    0.7693   61.9281  113.0952 C   0  0  2  0  0  0  0  0  0  0  0  0
   -0.5244   61.7132  113.8560 C   0  0  0  0  0  0  0  0  0  0  0  0
    0.5136   61.9920  111.6199 C   0  0  2  0  0  0  0  0  0  0  0  0
    1.6909   61.7945  110.7467 C   0  0  0  0  0  0  0  0  0  0  0  0
   -0.1291   63.2956  111.3881 N   0  0  0  0  0  0  0  0  0  0  0  0
   -1.2670   63.4611  112.2310 C   0  0  0  0  0  0  0  0  0  0  0  0
   -1.6198   62.1998  112.9817 C   0  0  2  0  0  0  0  0  0  0  0  0
   -2.9681   62.2686  113.5823 C   0  0  0  0  0  0  0  0  0  0  0  0
   -2.9003   61.7525  111.2065 C   0  0  0  0  0  0  0  0  0  0  0  0
    7.0155   62.5481  110.6578 C   0  0  0  0  0  0  0  0  0  0  0  0
    6.4787   62.1394  111.8624 C   0  0  0  0  0  0  0  0  0  0  0  0
    5.1272   61.9134  112.0107 C   0  0  0  0  0  0  0  0  0  0  0  0
    4.2471   62.0890  110.9481 C   0  0  0  0  0  0  0  0  0  0  0  0
    4.7987   62.4981  109.7491 C   0  0  0  0  0  0  0  0  0  0  0  0
    6.1507   62.7248  109.5985 C   0  0  0  0  0  0  0  0  0  0  0  0
    2.9956   61.7902  111.4068 C   0  0  0  0  0  0  0  0  0  0  0  0
    3.0844   61.4331  112.7333 C   0  0  0  0  0  0  0  0  0  0  0  0
   -3.8488   62.1740  112.3387 C   0  0  0  0  0  0  0  0  0  0  0  0
   -0.5976   61.0194  111.1872 C   0  0  0  0  0  0  0  0  0  0  0  0
   -1.8022   61.1827  111.9325 N   0  0  1  0  0  4  0  0  0  0  0  0
    4.3912   61.5262  113.0402 N   0  0  0  0  0  0  0  0  0  0  0  0
   -1.9095   64.5163  112.3484 O   0  0  0  0  0  0  0  0  0  0  0  0
    8.8950   62.8599  110.4605 Br  0  0  0  0  0  0  0  0  0  0  0  0
    6.7880   63.2369  108.0720 Cl  0  0  0  0  0  0  0  0  0  0  0  0
  1  2  1  1
  1  3  1  0
  4  1  1  0
  1 20  1  0
  4  5  1  1
  6  4  1  0
  5 10  1  0
  6  7  1  6
  6  8  1  0
  6 22  1  0
 19  7  1  0
  8  9  1  0
  9 10  1  0
  9 25  2  0
 10 11  1  1
 10 23  1  0
 11 21  1  0
 12 21  1  0
 23 12  1  6
 14 13  2  0
 13 18  1  0
 13 26  1  0
 15 14  1  0
 16 15  2  0
 15 24  1  0
 16 17  1  0
 16 19  1  0
 17 18  2  0
 18 27  1  0
 19 20  2  0
 20 24  1  0
 22 23  1  0
M  CHG  1  23   1
M  END
$$$$
