
     RDKit          3D

 27 32  0  0  0  0  0  0  0  0999 V2000
    1.9196   60.4629  113.0577 C   0  0  1  0  0  0  0  0  0  0  0  0
    2.5371   60.0610  114.4110 C   0  0  0  0  0  0  0  0  0  0  0  0
    1.3407   59.2270  112.4768 C   0  0  0  0  0  0  0  0  0  0  0  0
    0.9867   61.5776  113.3520 C   0  0  2  0  0  0  0  0  0  0  0  0
   -0.1934   61.1938  114.2231 C   0  0  0  0  0  0  0  0  0  0  0  0
    0.5360   62.3848  112.1725 C   0  0  2  0  0  0  0  0  0  0  0  0
    1.4918   62.4827  111.0481 C   0  0  0  0  0  0  0  0  0  0  0  0
    0.1861   63.7085  112.7123 N   0  0  0  0  0  0  0  0  0  0  0  0
   -0.7438   63.5926  113.7868 C   0  0  0  0  0  0  0  0  0  0  0  0
   -1.2637   62.1851  113.9531 C   0  0  2  0  0  0  0  0  0  0  0  0
   -2.4543   62.1315  114.8264 C   0  0  0  0  0  0  0  0  0  0  0  0
   -2.8627   62.8331  112.5338 C   0  0  0  0  0  0  0  0  0  0  0  0
    6.7716   62.4686  110.0233 C   0  0  0  0  0  0  0  0  0  0  0  0
    6.3402   61.6009  111.0067 C   0  0  0  0  0  0  0  0  0  0  0  0
    5.0108   61.5132  111.3595 C   0  0  0  0  0  0  0  0  0  0  0  0
    4.0473   62.2990  110.7360 C   0  0  0  0  0  0  0  0  0  0  0  0
    4.4938   63.1625  109.7540 C   0  0  0  0  0  0  0  0  0  0  0  0
    5.8235   63.2517  109.3995 C   0  0  0  0  0  0  0  0  0  0  0  0
    2.8433   61.9842  111.2993 C   0  0  0  0  0  0  0  0  0  0  0  0
    3.0434   61.0185  112.2596 C   0  0  0  0  0  0  0  0  0  0  0  0
   -3.5081   62.7721  113.9264 C   0  0  0  0  0  0  0  0  0  0  0  0
   -0.8222   61.9034  111.6326 C   0  0  0  0  0  0  0  0  0  0  0  0
   -1.8313   61.8418  112.6383 N   0  0  1  0  0  4  0  0  0  0  0  0
    4.3667   60.7758  112.2499 N   0  0  0  0  0  0  0  0  0  0  0  0
   -1.0991   64.5319  114.5157 O   0  0  0  0  0  0  0  0  0  0  0  0
    8.6212   62.5839  109.5393 Br  0  0  0  0  0  0  0  0  0  0  0  0
    6.3276   64.3521  108.1610 Cl  0  0  0  0  0  0  0  0  0  0  0  0
  1  2  1  1
  1  3  1  0
  4  1  1  0
  1 20  1  0
  4  5  1  6
  6  4  1  0
  5 10  1  0
  6  7  1  6
  6  8  1  0
  6 22  1  0
 19  7  1  0
  8  9  1  0
  9 10  1  0
  9 25  2  0
 10 11  1  1
 10 23  1  0
 11 21  1  0
 12 21  1  0
 23 12  1  6
 14 13  2  0
 13 18  1  0
 13 26  1  0
 15 14  1  0
 16 15  2  0
 15 24  1  0
 16 17  1  0
 16 19  1  0
 17 18  2  0
 18 27  1  0
 19 20  2  0
 20 24  1  0
 22 23  1  0
M  CHG  1  23   1
M  END
$$$$
