
     RDKit          3D

 27 32  0  0  0  0  0  0  0  0999 V2000
   23.6685   68.3078  142.9762 C   0  0  1  0  0  0  0  0  0  0  0  0
   23.7458   68.3926  144.5127 C   0  0  0  0  0  0  0  0  0  0  0  0
   22.2323   68.1625  142.6354 C   0  0  0  0  0  0  0  0  0  0  0  0
   24.3698   69.5115  142.4672 C   0  0  2  0  0  0  0  0  0  0  0  0
   23.6993   70.8242  142.8217 C   0  0  0  0  0  0  0  0  0  0  0  0
   24.7521   69.4845  141.0184 C   0  0  2  0  0  0  0  0  0  0  0  0
   25.0375   68.1509  140.4459 C   0  0  0  0  0  0  0  0  0  0  0  0
   25.9051   70.3913  140.8989 N   0  0  0  0  0  0  0  0  0  0  0  0
   25.6057   71.6732  141.4462 C   0  0  0  0  0  0  0  0  0  0  0  0
   24.1495   71.8186  141.8170 C   0  0  2  0  0  0  0  0  0  0  0  0
   23.7760   73.2269  142.0627 C   0  0  0  0  0  0  0  0  0  0  0  0
   23.9092   72.5669  139.7257 C   0  0  0  0  0  0  0  0  0  0  0  0
   26.8978   63.3018  141.8431 C   0  0  0  0  0  0  0  0  0  0  0  0
   26.0915   63.9341  142.7684 C   0  0  0  0  0  0  0  0  0  0  0  0
   25.5545   65.1801  142.5260 C   0  0  0  0  0  0  0  0  0  0  0  0
   25.8049   65.8524  141.3344 C   0  0  0  0  0  0  0  0  0  0  0  0
   26.6134   65.2074  140.4181 C   0  0  0  0  0  0  0  0  0  0  0  0
   27.1517   63.9607  140.6587 C   0  0  0  0  0  0  0  0  0  0  0  0
   25.1412   67.0447  141.3965 C   0  0  0  0  0  0  0  0  0  0  0  0
   24.4849   67.1231  142.6040 C   0  0  0  0  0  0  0  0  0  0  0  0
   23.8175   73.7935  140.6456 C   0  0  0  0  0  0  0  0  0  0  0  0
   23.7097   70.1937  140.1363 C   0  0  0  0  0  0  0  0  0  0  0  0
   23.4188   71.5193  140.5740 N   0  0  1  0  0  4  0  0  0  0  0  0
   24.7710   65.9725  143.2399 N   0  0  0  0  0  0  0  0  0  0  0  0
   26.4354   72.5818  141.6078 O   0  0  0  0  0  0  0  0  0  0  0  0
   27.6400   61.5702  142.1882 Br  0  0  0  0  0  0  0  0  0  0  0  0
   28.1589   63.1984  139.4742 Cl  0  0  0  0  0  0  0  0  0  0  0  0
  1  2  1  1
  1  3  1  0
  4  1  1  0
  1 20  1  0
  4  5  1  6
  6  4  1  0
  5 10  1  0
  6  7  1  6
  6  8  1  0
  6 22  1  0
 19  7  1  0
  8  9  1  0
  9 10  1  0
  9 25  2  0
 10 11  1  1
 10 23  1  0
 11 21  1  0
 12 21  1  0
 23 12  1  6
 14 13  2  0
 13 18  1  0
 13 26  1  0
 15 14  1  0
 16 15  2  0
 15 24  1  0
 16 17  1  0
 16 19  1  0
 17 18  2  0
 18 27  1  0
 19 20  2  0
 20 24  1  0
 22 23  1  0
M  CHG  1  23   1
M  END
$$$$
