
     RDKit          3D

 27 32  0  0  0  0  0  0  0  0999 V2000
    1.0939   61.6218  112.5482 C   0  0  1  0  0  0  0  0  0  0  0  0
    1.4310   61.2536  114.0059 C   0  0  0  0  0  0  0  0  0  0  0  0
    0.3319   60.4775  111.9914 C   0  0  0  0  0  0  0  0  0  0  0  0
    0.4035   62.9330  112.6097 C   0  0  2  0  0  0  0  0  0  0  0  0
   -0.9325   62.9048  113.3260 C   0  0  0  0  0  0  0  0  0  0  0  0
    0.2962   63.6794  111.3146 C   0  0  2  0  0  0  0  0  0  0  0  0
    1.3835   63.4485  110.3390 C   0  0  0  0  0  0  0  0  0  0  0  0
    0.1851   65.0990  111.6869 N   0  0  0  0  0  0  0  0  0  0  0  0
   -0.8749   65.3013  112.6186 C   0  0  0  0  0  0  0  0  0  0  0  0
   -1.7121   64.0616  112.8212 C   0  0  2  0  0  0  0  0  0  0  0  0
   -2.9850   64.3566  113.5112 C   0  0  0  0  0  0  0  0  0  0  0  0
   -2.9348   64.8672  111.1338 C   0  0  0  0  0  0  0  0  0  0  0  0
    6.6133   62.2144  110.1072 C   0  0  0  0  0  0  0  0  0  0  0  0
    5.8790   61.5719  111.0840 C   0  0  0  0  0  0  0  0  0  0  0  0
    4.5299   61.8047  111.2433 C   0  0  0  0  0  0  0  0  0  0  0  0
    3.8522   62.7000  110.4225 C   0  0  0  0  0  0  0  0  0  0  0  0
    4.5999   63.3354  109.4497 C   0  0  0  0  0  0  0  0  0  0  0  0
    5.9498   63.1039  109.2886 C   0  0  0  0  0  0  0  0  0  0  0  0
    2.5472   62.7094  110.8263 C   0  0  0  0  0  0  0  0  0  0  0  0
    2.4045   61.8369  111.8814 C   0  0  0  0  0  0  0  0  0  0  0  0
   -3.7475   65.0989  112.4164 C   0  0  0  0  0  0  0  0  0  0  0  0
   -1.0561   63.4358  110.6219 C   0  0  0  0  0  0  0  0  0  0  0  0
   -2.1718   63.6999  111.4697 N   0  0  1  0  0  4  0  0  0  0  0  0
    3.6309   61.3229  112.0865 N   0  0  0  0  0  0  0  0  0  0  0  0
   -1.1007   66.3698  113.2080 O   0  0  0  0  0  0  0  0  0  0  0  0
    8.4878   61.8849  109.8929 Br  0  0  0  0  0  0  0  0  0  0  0  0
    6.8382   63.9286  108.0520 Cl  0  0  0  0  0  0  0  0  0  0  0  0
  1  2  1  1
  1  3  1  0
  4  1  1  0
  1 20  1  0
  4  5  1  6
  6  4  1  0
  5 10  1  0
  6  7  1  6
  6  8  1  0
  6 22  1  0
 19  7  1  0
  8  9  1  0
  9 10  1  0
  9 25  2  0
 10 11  1  1
 10 23  1  0
 11 21  1  0
 12 21  1  0
 23 12  1  6
 14 13  2  0
 13 18  1  0
 13 26  1  0
 15 14  1  0
 16 15  2  0
 15 24  1  0
 16 17  1  0
 16 19  1  0
 17 18  2  0
 18 27  1  0
 19 20  2  0
 20 24  1  0
 22 23  1  0
M  CHG  1  23   1
M  END
$$$$
