
     RDKit          3D

 27 32  0  0  0  0  0  0  0  0999 V2000
    1.4432   60.8943  112.4761 C   0  0  1  0  0  0  0  0  0  0  0  0
    1.9471   60.1901  113.7505 C   0  0  0  0  0  0  0  0  0  0  0  0
    0.6960   59.8745  111.7003 C   0  0  0  0  0  0  0  0  0  0  0  0
    0.6879   62.0832  112.9406 C   0  0  2  0  0  0  0  0  0  0  0  0
   -0.5645   61.7603  113.7316 C   0  0  0  0  0  0  0  0  0  0  0  0
    0.4068   63.1282  111.9038 C   0  0  2  0  0  0  0  0  0  0  0  0
    1.4009   63.2484  110.8154 C   0  0  0  0  0  0  0  0  0  0  0  0
    0.2522   64.3887  112.6477 N   0  0  0  0  0  0  0  0  0  0  0  0
   -0.7176   64.2546  113.6841 C   0  0  0  0  0  0  0  0  0  0  0  0
   -1.4569   62.9401  113.6186 C   0  0  2  0  0  0  0  0  0  0  0  0
   -2.6681   62.9403  114.4650 C   0  0  0  0  0  0  0  0  0  0  0  0
   -2.8891   64.0516  112.3130 C   0  0  0  0  0  0  0  0  0  0  0  0
    6.6426   62.5521  109.8322 C   0  0  0  0  0  0  0  0  0  0  0  0
    6.0497   61.6202  110.6605 C   0  0  0  0  0  0  0  0  0  0  0  0
    4.7126   61.6917  110.9870 C   0  0  0  0  0  0  0  0  0  0  0  0
    3.9044   62.7100  110.4926 C   0  0  0  0  0  0  0  0  0  0  0  0
    4.5115   63.6351  109.6650 C   0  0  0  0  0  0  0  0  0  0  0  0
    5.8492   63.5654  109.3372 C   0  0  0  0  0  0  0  0  0  0  0  0
    2.6489   62.5068  110.9909 C   0  0  0  0  0  0  0  0  0  0  0  0
    2.6646   61.3821  111.7843 C   0  0  0  0  0  0  0  0  0  0  0  0
   -3.5794   63.8753  113.6738 C   0  0  0  0  0  0  0  0  0  0  0  0
   -0.9926   62.9617  111.2857 C   0  0  0  0  0  0  0  0  0  0  0  0
   -2.0298   62.9042  112.2624 N   0  0  1  0  0  4  0  0  0  0  0  0
    3.9332   60.9354  111.7433 N   0  0  0  0  0  0  0  0  0  0  0  0
   -0.9438   65.1116  114.5527 O   0  0  0  0  0  0  0  0  0  0  0  0
    8.5016   62.4450  109.3838 Br  0  0  0  0  0  0  0  0  0  0  0  0
    6.5583   64.7527  108.2949 Cl  0  0  0  0  0  0  0  0  0  0  0  0
  1  2  1  1
  1  3  1  0
  4  1  1  0
  1 20  1  0
  4  5  1  6
  6  4  1  0
  5 10  1  0
  6  7  1  6
  6  8  1  0
  6 22  1  0
 19  7  1  0
  8  9  1  0
  9 10  1  0
  9 25  2  0
 10 11  1  1
 10 23  1  0
 11 21  1  0
 12 21  1  0
 23 12  1  6
 14 13  2  0
 13 18  1  0
 13 26  1  0
 15 14  1  0
 16 15  2  0
 15 24  1  0
 16 17  1  0
 16 19  1  0
 17 18  2  0
 18 27  1  0
 19 20  2  0
 20 24  1  0
 22 23  1  0
M  CHG  1  23   1
M  END
$$$$
