
     RDKit          3D

 27 32  0  0  0  0  0  0  0  0999 V2000
   24.5725   69.2396  141.9784 C   0  0  1  0  0  0  0  0  0  0  0  0
   24.6930   70.3473  143.0426 C   0  0  0  0  0  0  0  0  0  0  0  0
   25.0721   69.8211  140.7086 C   0  0  0  0  0  0  0  0  0  0  0  0
   25.3032   68.0703  142.5247 C   0  0  2  0  0  0  0  0  0  0  0  0
   26.7936   68.2876  142.6976 C   0  0  0  0  0  0  0  0  0  0  0  0
   25.0318   66.7564  141.8568 C   0  0  2  0  0  0  0  0  0  0  0  0
   23.6850   66.5921  141.2681 C   0  0  0  0  0  0  0  0  0  0  0  0
   25.3147   65.7318  142.8747 N   0  0  0  0  0  0  0  0  0  0  0  0
   26.6207   65.9013  143.4210 C   0  0  0  0  0  0  0  0  0  0  0  0
   27.4252   66.9452  142.6847 C   0  0  2  0  0  0  0  0  0  0  0  0
   28.8615   66.8836  143.0261 C   0  0  0  0  0  0  0  0  0  0  0  0
   28.0919   65.2322  141.4149 C   0  0  0  0  0  0  0  0  0  0  0  0
   18.5974   68.2061  141.9300 C   0  0  0  0  0  0  0  0  0  0  0  0
   19.5720   69.1570  142.1576 C   0  0  0  0  0  0  0  0  0  0  0  0
   20.9119   68.8644  142.0208 C   0  0  0  0  0  0  0  0  0  0  0  0
   21.3367   67.5940  141.6465 C   0  0  0  0  0  0  0  0  0  0  0  0
   20.3501   66.6529  141.4221 C   0  0  0  0  0  0  0  0  0  0  0  0
   19.0089   66.9436  141.5583 C   0  0  0  0  0  0  0  0  0  0  0  0
   22.7016   67.6224  141.5989 C   0  0  0  0  0  0  0  0  0  0  0  0
   23.1296   68.8863  141.9368 C   0  0  0  0  0  0  0  0  0  0  0  0
   29.2744   65.5902  142.3277 C   0  0  0  0  0  0  0  0  0  0  0  0
   26.0877   66.4275  140.7868 C   0  0  0  0  0  0  0  0  0  0  0  0
   27.4230   66.4941  141.2828 N   0  0  1  0  0  4  0  0  0  0  0  0
   22.0081   69.5887  142.1799 N   0  0  0  0  0  0  0  0  0  0  0  0
   27.0653   65.2708  144.3929 O   0  0  0  0  0  0  0  0  0  0  0  0
   16.7375   68.6214  142.1224 Br  0  0  0  0  0  0  0  0  0  0  0  0
   17.8145   65.7248  141.2643 Cl  0  0  0  0  0  0  0  0  0  0  0  0
  1  2  1  1
  1  3  1  0
  4  1  1  0
  1 20  1  0
  4  5  1  6
  6  4  1  0
  5 10  1  0
  6  7  1  6
  6  8  1  0
  6 22  1  0
 19  7  1  0
  8  9  1  0
  9 10  1  0
  9 25  2  0
 10 11  1  1
 10 23  1  0
 11 21  1  0
 12 21  1  0
 23 12  1  1
 14 13  2  0
 13 18  1  0
 13 26  1  0
 15 14  1  0
 16 15  2  0
 15 24  1  0
 16 17  1  0
 16 19  1  0
 17 18  2  0
 18 27  1  0
 19 20  2  0
 20 24  1  0
 22 23  1  0
M  CHG  1  23   1
M  END
$$$$
