
     RDKit          3D

 27 32  0  0  0  0  0  0  0  0999 V2000
    1.5114   61.0889  112.6310 C   0  0  1  0  0  0  0  0  0  0  0  0
    1.9634   60.5547  114.0036 C   0  0  0  0  0  0  0  0  0  0  0  0
    0.8018   59.9730  111.9591 C   0  0  0  0  0  0  0  0  0  0  0  0
    0.7325   62.3197  112.9106 C   0  0  2  0  0  0  0  0  0  0  0  0
   -0.5512   62.0871  113.6830 C   0  0  0  0  0  0  0  0  0  0  0  0
    0.4917   63.2238  111.7399 C   0  0  2  0  0  0  0  0  0  0  0  0
    1.5307   63.2157  110.6873 C   0  0  0  0  0  0  0  0  0  0  0  0
    0.3007   64.5662  112.3123 N   0  0  0  0  0  0  0  0  0  0  0  0
   -0.7117   64.5542  113.3160 C   0  0  0  0  0  0  0  0  0  0  0  0
   -1.4425   63.2351  113.3855 C   0  0  2  0  0  0  0  0  0  0  0  0
   -2.6885   63.3303  114.1740 C   0  0  0  0  0  0  0  0  0  0  0  0
   -2.8221   64.1610  111.8920 C   0  0  0  0  0  0  0  0  0  0  0  0
    6.8121   62.4496  110.0188 C   0  0  0  0  0  0  0  0  0  0  0  0
    6.1881   61.6235  110.9322 C   0  0  0  0  0  0  0  0  0  0  0  0
    4.8381   61.7232  111.1911 C   0  0  0  0  0  0  0  0  0  0  0  0
    4.0477   62.6640  110.5394 C   0  0  0  0  0  0  0  0  0  0  0  0
    4.6859   63.4836  109.6282 C   0  0  0  0  0  0  0  0  0  0  0  0
    6.0366   63.3856  109.3677 C   0  0  0  0  0  0  0  0  0  0  0  0
    2.7729   62.5134  111.0065 C   0  0  0  0  0  0  0  0  0  0  0  0
    2.7593   61.4972  111.9350 C   0  0  0  0  0  0  0  0  0  0  0  0
   -3.5690   64.1504  113.2342 C   0  0  0  0  0  0  0  0  0  0  0  0
   -0.8795   62.9683  111.0897 C   0  0  0  0  0  0  0  0  0  0  0  0
   -1.9571   63.0243  112.0219 N   0  0  1  0  0  4  0  0  0  0  0  0
    4.0301   61.0606  112.0033 N   0  0  0  0  0  0  0  0  0  0  0  0
   -0.9779   65.5112  114.0599 O   0  0  0  0  0  0  0  0  0  0  0  0
    8.6889   62.3043  109.6653 Br  0  0  0  0  0  0  0  0  0  0  0  0
    6.7848   64.4392  108.2151 Cl  0  0  0  0  0  0  0  0  0  0  0  0
  1  2  1  1
  1  3  1  0
  4  1  1  0
  1 20  1  0
  4  5  1  6
  6  4  1  0
  5 10  1  0
  6  7  1  6
  6  8  1  0
  6 22  1  0
 19  7  1  0
  8  9  1  0
  9 10  1  0
  9 25  2  0
 10 11  1  1
 10 23  1  0
 11 21  1  0
 12 21  1  0
 23 12  1  6
 14 13  2  0
 13 18  1  0
 13 26  1  0
 15 14  1  0
 16 15  2  0
 15 24  1  0
 16 17  1  0
 16 19  1  0
 17 18  2  0
 18 27  1  0
 19 20  2  0
 20 24  1  0
 22 23  1  0
M  CHG  1  23   1
M  END
$$$$
