
     RDKit          3D

 42 43  0  0  0  0  0  0  0  0999 V2000
   11.2542   -9.6517  -16.8777 N   0  0  0  0  0  4  0  0  0  0  0  0
   12.1874   -9.2557  -15.7923 C   0  0  2  0  0  0  0  0  0  0  0  0
   12.9746  -10.4445  -15.3845 C   0  0  0  0  0  0  0  0  0  0  0  0
   12.7016  -11.5829  -15.8969 O   0  0  0  0  0  0  0  0  0  0  0  0
   11.3200   -8.7606  -14.6383 C   0  0  0  0  0  0  0  0  0  0  0  0
   10.3249   -9.7207  -14.1649 C   0  0  0  0  0  0  0  0  0  0  0  0
   10.1947  -11.0078  -14.6841 C   0  0  0  0  0  0  0  0  0  0  0  0
    9.4248   -9.3841  -13.1553 C   0  0  0  0  0  0  0  0  0  0  0  0
    9.2565  -11.8951  -14.2482 C   0  0  0  0  0  0  0  0  0  0  0  0
    8.4782  -10.2747  -12.7129 C   0  0  0  0  0  0  0  0  0  0  0  0
    8.3851  -11.5375  -13.2547 C   0  0  0  0  0  0  0  0  0  0  0  0
   14.0237  -10.3566  -14.4449 N   0  0  0  0  0  0  0  0  0  0  0  0
   14.9110  -11.3896  -14.0406 C   0  0  2  0  0  0  0  0  0  0  0  0
   14.3830  -12.1610  -12.8609 C   0  0  0  0  0  0  0  0  0  0  0  0
   13.9836  -11.5237  -11.8816 O   0  0  0  0  0  0  0  0  0  0  0  0
   16.1785  -10.7184  -13.5405 C   0  0  0  0  0  0  0  0  0  0  0  0
   15.7734   -9.3131  -13.1978 C   0  0  0  0  0  0  0  0  0  0  0  0
   14.3773   -9.1419  -13.7225 C   0  0  0  0  0  0  0  0  0  0  0  0
   14.3729  -13.5721  -12.9363 N   0  0  0  0  0  0  0  0  0  0  0  0
   13.7969  -14.3760  -11.8551 C   0  0  2  0  0  0  0  0  0  0  0  0
   14.8818  -14.9892  -11.0907 C   0  0  0  0  0  0  0  0  0  0  0  0
   15.7941  -15.6208  -11.6880 O   0  0  0  0  0  0  0  0  0  0  0  0
   12.9247  -15.4842  -12.4521 C   0  0  0  0  0  0  0  0  0  0  0  0
   14.9139  -14.8769   -9.6703 N   0  0  0  0  0  0  0  0  0  0  0  0
   16.0290  -15.3730   -8.9187 C   0  0  1  0  0  0  0  0  0  0  0  0
   17.0603  -14.2958   -8.6532 C   0  0  1  0  0  0  0  0  0  0  0  0
   16.6022  -13.2739   -7.6733 C   0  0  0  0  0  0  0  0  0  0  0  0
   18.2607  -14.8581   -8.2061 O   0  0  0  0  0  0  0  0  0  0  0  0
   19.6127  -14.3010   -9.0102 P   0  0  2  0  0  5  0  0  0  0  0  0
   20.9941  -15.0032   -8.2807 O   0  0  0  0  0  0  0  0  0  0  0  0
   19.8012  -12.8020   -8.8863 O   0  0  0  0  0  0  0  0  0  0  0  0
   19.6460  -14.7409  -10.6374 O   0  0  0  0  0  0  0  0  0  0  0  0
   15.5891  -16.0639   -7.7109 C   0  0  0  0  0  0  0  0  0  0  0  0
   14.9816  -15.4221   -6.8188 O   0  0  0  0  0  0  0  0  0  0  0  0
   15.8147  -17.4500   -7.4851 N   0  0  0  0  0  0  0  0  0  0  0  0
   16.6007  -17.8582   -6.3363 C   0  0  2  0  0  0  0  0  0  0  0  0
   16.2532  -17.0208   -5.1655 C   0  0  0  0  0  0  0  0  0  0  0  0
   16.2512  -15.7759   -5.2943 O   0  0  0  0  0  0  0  0  0  0  0  0
   18.0976  -17.6812   -6.6206 C   0  0  1  0  0  0  0  0  0  0  0  0
   18.7888  -17.0013   -5.4774 C   0  0  0  0  0  0  0  0  0  0  0  0
   18.6897  -19.0432   -6.8809 C   0  0  0  0  0  0  0  0  0  0  0  0
   15.9287  -17.5518   -3.9280 O   0  0  0  0  0  0  0  0  0  0  0  0
  2  1  1  6
  2  3  1  0
  2  5  1  0
  3  4  2  0
  3 12  1  0
  5  6  1  0
  6  7  2  0
  6  8  1  0
  7  9  1  0
  8 10  2  0
  9 11  2  0
 10 11  1  0
 12 13  1  0
 12 18  1  0
 13 14  1  1
 13 16  1  0
 14 15  2  0
 14 19  1  0
 16 17  1  0
 17 18  1  0
 19 20  1  0
 20 21  1  0
 20 23  1  6
 21 22  2  0
 21 24  1  0
 25 24  1  1
 25 26  1  0
 25 33  1  0
 26 27  1  1
 26 28  1  0
 28 29  1  0
 29 30  1  1
 29 31  2  0
 29 32  1  0
 33 34  2  0
 33 35  1  0
 36 35  1  6
 36 37  1  0
 36 39  1  0
 37 38  2  0
 37 42  1  0
 39 40  1  1
 39 41  1  0
M  CHG  1   1   1
M  END
$$$$
