
     RDKit          3D

 42 43  0  0  0  0  0  0  0  0999 V2000
   13.1256    7.8500   15.0333 N   0  0  0  0  0  4  0  0  0  0  0  0
   14.0412    8.9691   14.6944 C   0  0  2  0  0  0  0  0  0  0  0  0
   13.3142    9.9352   13.8357 C   0  0  0  0  0  0  0  0  0  0  0  0
   12.5149    9.4989   12.9392 O   0  0  0  0  0  0  0  0  0  0  0  0
   15.2146    8.3516   13.9387 C   0  0  0  0  0  0  0  0  0  0  0  0
   14.9242    7.0700   13.2989 C   0  0  0  0  0  0  0  0  0  0  0  0
   14.6179    6.9418   11.9451 C   0  0  0  0  0  0  0  0  0  0  0  0
   14.9251    5.8843   14.0316 C   0  0  0  0  0  0  0  0  0  0  0  0
   14.3350    5.7459   11.3557 C   0  0  0  0  0  0  0  0  0  0  0  0
   14.6409    4.6774   13.4422 C   0  0  0  0  0  0  0  0  0  0  0  0
   14.3434    4.5968   12.0998 C   0  0  0  0  0  0  0  0  0  0  0  0
   13.4763   11.3295   13.9807 N   0  0  0  0  0  0  0  0  0  0  0  0
   12.7366   12.3574   13.3373 C   0  0  2  0  0  0  0  0  0  0  0  0
   13.3585   12.7701   12.0302 C   0  0  0  0  0  0  0  0  0  0  0  0
   14.5072   13.2226   12.0504 O   0  0  0  0  0  0  0  0  0  0  0  0
   12.8208   13.5886   14.2228 C   0  0  0  0  0  0  0  0  0  0  0  0
   14.0306   13.3729   15.0867 C   0  0  0  0  0  0  0  0  0  0  0  0
   14.4612   11.9536   14.8541 C   0  0  0  0  0  0  0  0  0  0  0  0
   12.5954   12.6186   10.8505 N   0  0  0  0  0  0  0  0  0  0  0  0
   12.9293   13.3737    9.6400 C   0  0  2  0  0  0  0  0  0  0  0  0
   13.9320   14.3842    9.9733 C   0  0  0  0  0  0  0  0  0  0  0  0
   13.6085   15.3892   10.6613 O   0  0  0  0  0  0  0  0  0  0  0  0
   11.6744   14.0767    9.1145 C   0  0  0  0  0  0  0  0  0  0  0  0
   15.2766   14.2392    9.5235 N   0  0  0  0  0  0  0  0  0  0  0  0
   16.0776   15.3881    9.2190 C   0  0  1  0  0  0  0  0  0  0  0  0
   17.4313   15.3335    9.8967 C   0  0  1  0  0  0  0  0  0  0  0  0
   17.3424   15.2795   11.3811 C   0  0  0  0  0  0  0  0  0  0  0  0
   18.1711   14.2382    9.4388 O   0  0  0  0  0  0  0  0  0  0  0  0
   19.6768   14.0931   10.1436 P   0  0  2  0  0  5  0  0  0  0  0  0
   20.5994   15.4724    9.7195 O   0  0  0  0  0  0  0  0  0  0  0  0
   20.4606   12.9019    9.6291 O   0  0  0  0  0  0  0  0  0  0  0  0
   19.6200   14.0458   11.8279 O   0  0  0  0  0  0  0  0  0  0  0  0
   16.1595   15.6108    7.7790 C   0  0  0  0  0  0  0  0  0  0  0  0
   15.7441   14.7246    6.9924 O   0  0  0  0  0  0  0  0  0  0  0  0
   16.6937   16.7988    7.2077 N   0  0  0  0  0  0  0  0  0  0  0  0
   16.9014   16.8594    5.7733 C   0  0  2  0  0  0  0  0  0  0  0  0
   17.8620   17.9387    5.4491 C   0  0  0  0  0  0  0  0  0  0  0  0
   18.1964   18.7391    6.3514 O   0  0  0  0  0  0  0  0  0  0  0  0
   15.5819   17.1645    5.0530 C   0  0  1  0  0  0  0  0  0  0  0  0
   15.7536   17.1137    3.5647 C   0  0  0  0  0  0  0  0  0  0  0  0
   14.5532   16.1638    5.5155 C   0  0  0  0  0  0  0  0  0  0  0  0
   18.4112   18.1063    4.1885 O   0  0  0  0  0  0  0  0  0  0  0  0
  2  1  1  6
  2  3  1  0
  2  5  1  0
  3  4  2  0
  3 12  1  0
  5  6  1  0
  6  7  2  0
  6  8  1  0
  7  9  1  0
  8 10  2  0
  9 11  2  0
 10 11  1  0
 12 13  1  0
 12 18  1  0
 13 14  1  6
 13 16  1  0
 14 15  2  0
 14 19  1  0
 16 17  1  0
 17 18  1  0
 19 20  1  0
 20 21  1  0
 20 23  1  1
 21 22  2  0
 21 24  1  0
 25 24  1  6
 25 26  1  0
 25 33  1  0
 26 27  1  1
 26 28  1  0
 28 29  1  0
 29 30  1  1
 29 31  2  0
 29 32  1  0
 33 34  2  0
 33 35  1  0
 36 35  1  1
 36 37  1  0
 36 39  1  0
 37 38  2  0
 37 42  1  0
 39 40  1  6
 39 41  1  0
M  CHG  1   1   1
M  END
$$$$
