
     RDKit          3D

 42 43  0  0  0  0  0  0  0  0999 V2000
   13.4305   -9.8312  -14.6393 N   0  0  0  0  0  4  0  0  0  0  0  0
   12.5691  -10.8160  -13.9366 C   0  0  2  0  0  0  0  0  0  0  0  0
   12.5764  -10.5050  -12.4866 C   0  0  0  0  0  0  0  0  0  0  0  0
   13.2977   -9.5421  -12.0557 O   0  0  0  0  0  0  0  0  0  0  0  0
   13.1833  -12.1886  -14.1974 C   0  0  0  0  0  0  0  0  0  0  0  0
   13.7707  -12.3539  -15.5255 C   0  0  0  0  0  0  0  0  0  0  0  0
   13.0210  -12.6483  -16.6632 C   0  0  0  0  0  0  0  0  0  0  0  0
   15.1454  -12.2365  -15.7232 C   0  0  0  0  0  0  0  0  0  0  0  0
   13.5749  -12.8145  -17.8974 C   0  0  0  0  0  0  0  0  0  0  0  0
   15.7077  -12.4029  -16.9646 C   0  0  0  0  0  0  0  0  0  0  0  0
   14.9285  -12.6932  -18.0625 C   0  0  0  0  0  0  0  0  0  0  0  0
   11.8047  -11.2416  -11.5629 N   0  0  0  0  0  0  0  0  0  0  0  0
   11.6727  -11.0100  -10.1677 C   0  0  2  0  0  0  0  0  0  0  0  0
   12.7088  -11.7545   -9.3689 C   0  0  0  0  0  0  0  0  0  0  0  0
   12.9575  -12.9220   -9.6847 O   0  0  0  0  0  0  0  0  0  0  0  0
   10.3412  -11.6035   -9.7411 C   0  0  0  0  0  0  0  0  0  0  0  0
    9.9942  -12.6039  -10.8066 C   0  0  0  0  0  0  0  0  0  0  0  0
   10.9856  -12.3940  -11.9143 C   0  0  0  0  0  0  0  0  0  0  0  0
   13.3409  -11.0787   -8.3009 N   0  0  0  0  0  0  0  0  0  0  0  0
   14.3427  -11.7563   -7.4738 C   0  0  2  0  0  0  0  0  0  0  0  0
   14.4896  -13.1340   -7.9408 C   0  0  0  0  0  0  0  0  0  0  0  0
   13.4818  -13.7716   -8.3479 O   0  0  0  0  0  0  0  0  0  0  0  0
   13.8729  -11.7756   -6.0163 C   0  0  0  0  0  0  0  0  0  0  0  0
   15.7691  -13.7618   -7.9382 N   0  0  0  0  0  0  0  0  0  0  0  0
   15.8974  -15.1698   -8.1743 C   0  0  1  0  0  0  0  0  0  0  0  0
   16.9257  -15.4758   -9.2436 C   0  0  1  0  0  0  0  0  0  0  0  0
   16.3997  -15.3152  -10.6263 C   0  0  0  0  0  0  0  0  0  0  0  0
   18.0597  -14.6723   -9.0853 O   0  0  0  0  0  0  0  0  0  0  0  0
   19.2336  -14.9179  -10.2458 P   0  0  2  0  0  5  0  0  0  0  0  0
   18.5936  -14.4409  -11.7612 O   0  0  0  0  0  0  0  0  0  0  0  0
   19.6163  -16.3762  -10.4033 O   0  0  0  0  0  0  0  0  0  0  0  0
   20.6215  -13.9949   -9.9924 O   0  0  0  0  0  0  0  0  0  0  0  0
   16.1221  -15.8978   -6.9296 C   0  0  0  0  0  0  0  0  0  0  0  0
   16.6941  -15.3216   -5.9717 O   0  0  0  0  0  0  0  0  0  0  0  0
   15.7209  -17.2490   -6.7388 N   0  0  0  0  0  0  0  0  0  0  0  0
   16.5991  -18.1497   -6.0165 C   0  0  2  0  0  0  0  0  0  0  0  0
   16.0424  -18.4249   -4.6722 C   0  0  0  0  0  0  0  0  0  0  0  0
   16.7162  -19.1089   -3.8693 O   0  0  0  0  0  0  0  0  0  0  0  0
   17.9853  -17.5179   -5.8374 C   0  0  1  0  0  0  0  0  0  0  0  0
   18.3486  -17.4124   -4.3869 C   0  0  0  0  0  0  0  0  0  0  0  0
   18.9852  -18.3608   -6.5879 C   0  0  0  0  0  0  0  0  0  0  0  0
   14.8052  -17.9595   -4.2583 O   0  0  0  0  0  0  0  0  0  0  0  0
  2  1  1  6
  2  3  1  0
  2  5  1  0
  3  4  2  0
  3 12  1  0
  5  6  1  0
  6  7  2  0
  6  8  1  0
  7  9  1  0
  8 10  2  0
  9 11  2  0
 10 11  1  0
 12 13  1  0
 12 18  1  0
 13 14  1  1
 13 16  1  0
 14 15  2  0
 14 19  1  0
 16 17  1  0
 17 18  1  0
 19 20  1  0
 20 21  1  0
 20 23  1  1
 21 22  2  0
 21 24  1  0
 25 24  1  1
 25 26  1  0
 25 33  1  0
 26 27  1  6
 26 28  1  0
 28 29  1  0
 29 30  1  6
 29 31  2  0
 29 32  1  0
 33 34  2  0
 33 35  1  0
 36 35  1  1
 36 37  1  0
 36 39  1  0
 37 38  2  0
 37 42  1  0
 39 40  1  1
 39 41  1  0
M  CHG  1   1   1
M  END
$$$$
