
     RDKit          3D

 42 43  0  0  0  0  0  0  0  0999 V2000
   12.0706    8.4938   14.7767 N   0  0  0  0  0  4  0  0  0  0  0  0
   10.7270    8.8616   14.2620 C   0  0  2  0  0  0  0  0  0  0  0  0
   10.8140   10.1920   13.6128 C   0  0  0  0  0  0  0  0  0  0  0  0
    9.8338   10.6108   12.9079 O   0  0  0  0  0  0  0  0  0  0  0  0
    9.8007    8.9119   15.4741 C   0  0  0  0  0  0  0  0  0  0  0  0
   10.1848    8.0305   16.5749 C   0  0  0  0  0  0  0  0  0  0  0  0
   11.3492    7.2641   16.5719 C   0  0  0  0  0  0  0  0  0  0  0  0
    9.3791    7.8984   17.7045 C   0  0  0  0  0  0  0  0  0  0  0  0
   11.6966    6.4337   17.5953 C   0  0  0  0  0  0  0  0  0  0  0  0
    9.7251    7.0633   18.7379 C   0  0  0  0  0  0  0  0  0  0  0  0
   10.8861    6.3237   18.6931 C   0  0  0  0  0  0  0  0  0  0  0  0
   11.9510   11.0161   13.7525 N   0  0  0  0  0  0  0  0  0  0  0  0
   12.2208   12.2382   13.0807 C   0  0  2  0  0  0  0  0  0  0  0  0
   12.9633   12.0233   11.7891 C   0  0  0  0  0  0  0  0  0  0  0  0
   13.0934   10.8657   11.3794 O   0  0  0  0  0  0  0  0  0  0  0  0
   13.1744   13.0291   13.9595 C   0  0  0  0  0  0  0  0  0  0  0  0
   13.8182   12.0132   14.8593 C   0  0  0  0  0  0  0  0  0  0  0  0
   13.0634   10.7325   14.6493 C   0  0  0  0  0  0  0  0  0  0  0  0
   13.4719   13.1563   11.1150 N   0  0  0  0  0  0  0  0  0  0  0  0
   14.1015   13.0247    9.7984 C   0  0  2  0  0  0  0  0  0  0  0  0
   14.7834   14.2761    9.4719 C   0  0  0  0  0  0  0  0  0  0  0  0
   14.1530   15.3664    9.5151 O   0  0  0  0  0  0  0  0  0  0  0  0
   13.0252   12.7578    8.7423 C   0  0  0  0  0  0  0  0  0  0  0  0
   16.1603   14.2703    9.1040 N   0  0  0  0  0  0  0  0  0  0  0  0
   16.8305   15.4856    8.7457 C   0  0  1  0  0  0  0  0  0  0  0  0
   18.3303   15.3845    8.9327 C   0  0  1  0  0  0  0  0  0  0  0  0
   18.8593   16.3300    9.9527 C   0  0  0  0  0  0  0  0  0  0  0  0
   18.7002   14.0801    9.2770 O   0  0  0  0  0  0  0  0  0  0  0  0
   20.3442   13.8690    9.4705 P   0  0  2  0  0  5  0  0  0  0  0  0
   20.8049   14.5976   10.9505 O   0  0  0  0  0  0  0  0  0  0  0  0
   21.1618   14.5637    8.3997 O   0  0  0  0  0  0  0  0  0  0  0  0
   20.7992   12.2483    9.5646 O   0  0  0  0  0  0  0  0  0  0  0  0
   16.4420   15.9318    7.4116 C   0  0  0  0  0  0  0  0  0  0  0  0
   15.6902   15.2083    6.7130 O   0  0  0  0  0  0  0  0  0  0  0  0
   16.8763   17.1640    6.8495 N   0  0  0  0  0  0  0  0  0  0  0  0
   16.8046   17.3473    5.4122 C   0  0  2  0  0  0  0  0  0  0  0  0
   17.9629   18.1446    4.9482 C   0  0  0  0  0  0  0  0  0  0  0  0
   18.2299   18.1646    3.7256 O   0  0  0  0  0  0  0  0  0  0  0  0
   15.5243   18.1013    5.0312 C   0  0  1  0  0  0  0  0  0  0  0  0
   15.7182   19.5840    5.1359 C   0  0  0  0  0  0  0  0  0  0  0  0
   15.1444   17.7009    3.6281 C   0  0  0  0  0  0  0  0  0  0  0  0
   18.7696   18.8732    5.8067 O   0  0  0  0  0  0  0  0  0  0  0  0
  2  1  1  1
  2  3  1  0
  2  5  1  0
  3  4  2  0
  3 12  1  0
  5  6  1  0
  6  7  2  0
  6  8  1  0
  7  9  1  0
  8 10  2  0
  9 11  2  0
 10 11  1  0
 12 13  1  0
 12 18  1  0
 13 14  1  6
 13 16  1  0
 14 15  2  0
 14 19  1  0
 16 17  1  0
 17 18  1  0
 19 20  1  0
 20 21  1  0
 20 23  1  6
 21 22  2  0
 21 24  1  0
 25 24  1  6
 25 26  1  0
 25 33  1  0
 26 27  1  1
 26 28  1  0
 28 29  1  0
 29 30  1  1
 29 31  2  0
 29 32  1  0
 33 34  2  0
 33 35  1  0
 36 35  1  1
 36 37  1  0
 36 39  1  0
 37 38  2  0
 37 42  1  0
 39 40  1  6
 39 41  1  0
M  CHG  1   1   1
M  END
$$$$
