
     RDKit          3D

 42 43  0  0  0  0  0  0  0  0999 V2000
   11.5921    7.7988   15.2690 N   0  0  0  0  0  4  0  0  0  0  0  0
   12.6914    8.7947   15.1961 C   0  0  2  0  0  0  0  0  0  0  0  0
   12.2216    9.9655   14.4165 C   0  0  0  0  0  0  0  0  0  0  0  0
   11.2466    9.8260   13.6023 O   0  0  0  0  0  0  0  0  0  0  0  0
   13.8520    8.1036   14.4858 C   0  0  0  0  0  0  0  0  0  0  0  0
   13.4739    6.9427   13.6824 C   0  0  0  0  0  0  0  0  0  0  0  0
   13.2326    7.0061   12.3110 C   0  0  0  0  0  0  0  0  0  0  0  0
   13.3181    5.6858   14.2644 C   0  0  0  0  0  0  0  0  0  0  0  0
   12.8675    5.9231   11.5683 C   0  0  0  0  0  0  0  0  0  0  0  0
   12.9507    4.5921   13.5203 C   0  0  0  0  0  0  0  0  0  0  0  0
   12.7221    4.7003   12.1664 C   0  0  0  0  0  0  0  0  0  0  0  0
   12.8193   11.2369   14.5488 N   0  0  0  0  0  0  0  0  0  0  0  0
   12.4383   12.4429   13.9020 C   0  0  2  0  0  0  0  0  0  0  0  0
   13.1468   12.6294   12.5872 C   0  0  0  0  0  0  0  0  0  0  0  0
   14.2092   12.0258   12.4089 O   0  0  0  0  0  0  0  0  0  0  0  0
   12.9173   13.5886   14.7767 C   0  0  0  0  0  0  0  0  0  0  0  0
   14.0040   13.0047   15.6338 C   0  0  0  0  0  0  0  0  0  0  0  0
   13.9595   11.5209   15.4099 C   0  0  0  0  0  0  0  0  0  0  0  0
   12.5596   13.4849   11.6279 N   0  0  0  0  0  0  0  0  0  0  0  0
   13.0144   13.4726   10.2350 C   0  0  2  0  0  0  0  0  0  0  0  0
   13.8425   14.6537    9.9964 C   0  0  0  0  0  0  0  0  0  0  0  0
   13.4121   15.7972   10.3050 O   0  0  0  0  0  0  0  0  0  0  0  0
   11.8014   13.5224    9.3016 C   0  0  0  0  0  0  0  0  0  0  0  0
   15.1369   14.5192    9.4154 N   0  0  0  0  0  0  0  0  0  0  0  0
   15.9444   15.6721    9.1445 C   0  0  1  0  0  0  0  0  0  0  0  0
   17.3522   15.5196    9.6821 C   0  0  1  0  0  0  0  0  0  0  0  0
   17.4402   15.7021   11.1563 C   0  0  0  0  0  0  0  0  0  0  0  0
   17.8812   14.2708    9.3396 O   0  0  0  0  0  0  0  0  0  0  0  0
   19.4859   14.0759    9.7542 P   0  0  2  0  0  5  0  0  0  0  0  0
   20.4063   15.2246    8.8785 O   0  0  0  0  0  0  0  0  0  0  0  0
   20.0401   12.7209    9.3608 O   0  0  0  0  0  0  0  0  0  0  0  0
   19.7882   14.3557   11.3890 O   0  0  0  0  0  0  0  0  0  0  0  0
   15.9001   16.0300    7.7304 C   0  0  0  0  0  0  0  0  0  0  0  0
   14.8047   16.3547    7.2095 O   0  0  0  0  0  0  0  0  0  0  0  0
   17.0511   16.0312    6.8948 N   0  0  0  0  0  0  0  0  0  0  0  0
   16.9221   16.4689    5.5178 C   0  0  2  0  0  0  0  0  0  0  0  0
   18.2268   16.9645    5.0230 C   0  0  0  0  0  0  0  0  0  0  0  0
   19.2061   16.9656    5.8024 O   0  0  0  0  0  0  0  0  0  0  0  0
   15.9068   17.6139    5.4121 C   0  0  1  0  0  0  0  0  0  0  0  0
   16.5076   18.9126    5.8584 C   0  0  0  0  0  0  0  0  0  0  0  0
   15.4391   17.6950    3.9810 C   0  0  0  0  0  0  0  0  0  0  0  0
   18.4167   17.4297    3.7322 O   0  0  0  0  0  0  0  0  0  0  0  0
  2  1  1  6
  2  3  1  0
  2  5  1  0
  3  4  2  0
  3 12  1  0
  5  6  1  0
  6  7  2  0
  6  8  1  0
  7  9  1  0
  8 10  2  0
  9 11  2  0
 10 11  1  0
 12 13  1  0
 12 18  1  0
 13 14  1  6
 13 16  1  0
 14 15  2  0
 14 19  1  0
 16 17  1  0
 17 18  1  0
 19 20  1  0
 20 21  1  0
 20 23  1  6
 21 22  2  0
 21 24  1  0
 25 24  1  6
 25 26  1  0
 25 33  1  0
 26 27  1  1
 26 28  1  0
 28 29  1  0
 29 30  1  6
 29 31  2  0
 29 32  1  0
 33 34  2  0
 33 35  1  0
 36 35  1  1
 36 37  1  0
 36 39  1  0
 37 38  2  0
 37 42  1  0
 39 40  1  6
 39 41  1  0
M  CHG  1   1   1
M  END
$$$$
