
     RDKit          3D

 42 43  0  0  0  0  0  0  0  0999 V2000
   13.0638    7.7193   13.3042 N   0  0  0  0  0  4  0  0  0  0  0  0
   12.4061    8.5520   14.3433 C   0  0  2  0  0  0  0  0  0  0  0  0
   12.0409    9.8588   13.7449 C   0  0  0  0  0  0  0  0  0  0  0  0
   11.1413    9.9035   12.8384 O   0  0  0  0  0  0  0  0  0  0  0  0
   13.4308    8.7366   15.4592 C   0  0  0  0  0  0  0  0  0  0  0  0
   14.8091    8.9042   15.0029 C   0  0  0  0  0  0  0  0  0  0  0  0
   15.2141    8.6753   13.6889 C   0  0  0  0  0  0  0  0  0  0  0  0
   15.8152    9.2972   15.8839 C   0  0  0  0  0  0  0  0  0  0  0  0
   16.5033    8.8204   13.2710 C   0  0  0  0  0  0  0  0  0  0  0  0
   17.1151    9.4447   15.4675 C   0  0  0  0  0  0  0  0  0  0  0  0
   17.4711    9.2079   14.1583 C   0  0  0  0  0  0  0  0  0  0  0  0
   12.6575   11.0617   14.1497 N   0  0  0  0  0  0  0  0  0  0  0  0
   12.3369   12.3810   13.7317 C   0  0  2  0  0  0  0  0  0  0  0  0
   13.1179   12.7952   12.5135 C   0  0  0  0  0  0  0  0  0  0  0  0
   14.2446   12.3154   12.3547 O   0  0  0  0  0  0  0  0  0  0  0  0
   12.7930   13.3213   14.8339 C   0  0  0  0  0  0  0  0  0  0  0  0
   13.8201   12.5498   15.6125 C   0  0  0  0  0  0  0  0  0  0  0  0
   13.7562   11.1390   15.1032 C   0  0  0  0  0  0  0  0  0  0  0  0
   12.5213   13.7106   11.6174 N   0  0  0  0  0  0  0  0  0  0  0  0
   12.9235   13.7506   10.2090 C   0  0  2  0  0  0  0  0  0  0  0  0
   13.9492   14.7784   10.0380 C   0  0  0  0  0  0  0  0  0  0  0  0
   13.6933   15.9777   10.3287 O   0  0  0  0  0  0  0  0  0  0  0  0
   11.7133   14.1107    9.3425 C   0  0  0  0  0  0  0  0  0  0  0  0
   15.2399   14.4315    9.5432 N   0  0  0  0  0  0  0  0  0  0  0  0
   16.2135   15.4435    9.2563 C   0  0  1  0  0  0  0  0  0  0  0  0
   17.5293   15.1826    9.9599 C   0  0  1  0  0  0  0  0  0  0  0  0
   17.3943   15.0829   11.4384 C   0  0  0  0  0  0  0  0  0  0  0  0
   18.1299   14.0172    9.4719 O   0  0  0  0  0  0  0  0  0  0  0  0
   19.5446   13.6033   10.2544 P   0  0  2  0  0  5  0  0  0  0  0  0
   19.1613   13.2095   11.8766 O   0  0  0  0  0  0  0  0  0  0  0  0
   20.5356   14.7476   10.3337 O   0  0  0  0  0  0  0  0  0  0  0  0
   20.2988   12.2492    9.5911 O   0  0  0  0  0  0  0  0  0  0  0  0
   16.3565   15.6494    7.8186 C   0  0  0  0  0  0  0  0  0  0  0  0
   15.6376   14.9921    7.0261 O   0  0  0  0  0  0  0  0  0  0  0  0
   17.2822   16.5709    7.2559 N   0  0  0  0  0  0  0  0  0  0  0  0
   17.3012   16.7619    5.8180 C   0  0  2  0  0  0  0  0  0  0  0  0
   18.4824   17.5675    5.4329 C   0  0  0  0  0  0  0  0  0  0  0  0
   18.8643   17.5457    4.2412 O   0  0  0  0  0  0  0  0  0  0  0  0
   16.0437   17.5117    5.3602 C   0  0  1  0  0  0  0  0  0  0  0  0
   16.0440   18.9246    5.8611 C   0  0  0  0  0  0  0  0  0  0  0  0
   15.9950   17.4694    3.8538 C   0  0  0  0  0  0  0  0  0  0  0  0
   19.1890   18.3482    6.3328 O   0  0  0  0  0  0  0  0  0  0  0  0
  2  1  1  6
  2  3  1  0
  2  5  1  0
  3  4  2  0
  3 12  1  0
  5  6  1  0
  6  7  2  0
  6  8  1  0
  7  9  1  0
  8 10  2  0
  9 11  2  0
 10 11  1  0
 12 13  1  0
 12 18  1  0
 13 14  1  6
 13 16  1  0
 14 15  2  0
 14 19  1  0
 16 17  1  0
 17 18  1  0
 19 20  1  0
 20 21  1  0
 20 23  1  6
 21 22  2  0
 21 24  1  0
 25 24  1  6
 25 26  1  0
 25 33  1  0
 26 27  1  1
 26 28  1  0
 28 29  1  0
 29 30  1  1
 29 31  2  0
 29 32  1  0
 33 34  2  0
 33 35  1  0
 36 35  1  1
 36 37  1  0
 36 39  1  0
 37 38  2  0
 37 42  1  0
 39 40  1  6
 39 41  1  0
M  CHG  1   1   1
M  END
$$$$
