
     RDKit          3D

 42 43  0  0  0  0  0  0  0  0999 V2000
   12.1200    7.8589   14.2507 N   0  0  0  0  0  4  0  0  0  0  0  0
   13.0296    8.9764   14.6101 C   0  0  2  0  0  0  0  0  0  0  0  0
   12.5611   10.2085   13.9306 C   0  0  0  0  0  0  0  0  0  0  0  0
   11.5518   10.1481   13.1492 O   0  0  0  0  0  0  0  0  0  0  0  0
   14.4167    8.5795   14.1123 C   0  0  0  0  0  0  0  0  0  0  0  0
   14.5375    8.4695   12.6600 C   0  0  0  0  0  0  0  0  0  0  0  0
   13.4499    8.5552   11.7923 C   0  0  0  0  0  0  0  0  0  0  0  0
   15.7750    8.2540   12.0559 C   0  0  0  0  0  0  0  0  0  0  0  0
   13.5659    8.4390   10.4392 C   0  0  0  0  0  0  0  0  0  0  0  0
   15.8967    8.1365   10.6934 C   0  0  0  0  0  0  0  0  0  0  0  0
   14.7943    8.2278    9.8729 C   0  0  0  0  0  0  0  0  0  0  0  0
   13.1972   11.4533   14.1236 N   0  0  0  0  0  0  0  0  0  0  0  0
   12.8184   12.7108   13.5824 C   0  0  2  0  0  0  0  0  0  0  0  0
   13.4704   12.9749   12.2517 C   0  0  0  0  0  0  0  0  0  0  0  0
   14.5978   12.5112   12.0548 O   0  0  0  0  0  0  0  0  0  0  0  0
   13.3666   13.7798   14.5119 C   0  0  0  0  0  0  0  0  0  0  0  0
   14.4759   13.1115   15.2729 C   0  0  0  0  0  0  0  0  0  0  0  0
   14.3827   11.6489   14.9474 C   0  0  0  0  0  0  0  0  0  0  0  0
   12.7589   13.7392   11.2996 N   0  0  0  0  0  0  0  0  0  0  0  0
   13.2055   13.8034    9.9055 C   0  0  2  0  0  0  0  0  0  0  0  0
   14.2230   14.8460    9.7813 C   0  0  0  0  0  0  0  0  0  0  0  0
   14.0328   15.9768   10.3040 O   0  0  0  0  0  0  0  0  0  0  0  0
   12.0191   14.1606    9.0054 C   0  0  0  0  0  0  0  0  0  0  0  0
   15.4317   14.5905    9.0707 N   0  0  0  0  0  0  0  0  0  0  0  0
   16.3404   15.6545    8.7598 C   0  0  1  0  0  0  0  0  0  0  0  0
   17.7473   15.3585    9.2370 C   0  0  1  0  0  0  0  0  0  0  0  0
   18.3254   16.4474   10.0702 C   0  0  0  0  0  0  0  0  0  0  0  0
   17.7852   14.1586    9.9550 O   0  0  0  0  0  0  0  0  0  0  0  0
   19.2798   13.4163    9.9590 P   0  0  2  0  0  5  0  0  0  0  0  0
   20.3857   14.4485   10.7624 O   0  0  0  0  0  0  0  0  0  0  0  0
   19.8454   13.2135    8.5673 O   0  0  0  0  0  0  0  0  0  0  0  0
   19.2911   11.9503   10.7914 O   0  0  0  0  0  0  0  0  0  0  0  0
   16.2717   16.0146    7.3473 C   0  0  0  0  0  0  0  0  0  0  0  0
   15.7265   15.2274    6.5350 O   0  0  0  0  0  0  0  0  0  0  0  0
   16.7980   17.2310    6.8311 N   0  0  0  0  0  0  0  0  0  0  0  0
   17.0908   17.3270    5.4136 C   0  0  2  0  0  0  0  0  0  0  0  0
   18.5398   17.5573    5.2135 C   0  0  0  0  0  0  0  0  0  0  0  0
   19.2741   17.6861    6.2188 O   0  0  0  0  0  0  0  0  0  0  0  0
   16.3310   18.5035    4.7878 C   0  0  1  0  0  0  0  0  0  0  0  0
   14.9097   18.5435    5.2624 C   0  0  0  0  0  0  0  0  0  0  0  0
   17.0589   19.7748    5.1449 C   0  0  0  0  0  0  0  0  0  0  0  0
   19.1249   17.6378    3.9606 O   0  0  0  0  0  0  0  0  0  0  0  0
  2  1  1  6
  2  3  1  0
  2  5  1  0
  3  4  2  0
  3 12  1  0
  5  6  1  0
  6  7  2  0
  6  8  1  0
  7  9  1  0
  8 10  2  0
  9 11  2  0
 10 11  1  0
 12 13  1  0
 12 18  1  0
 13 14  1  6
 13 16  1  0
 14 15  2  0
 14 19  1  0
 16 17  1  0
 17 18  1  0
 19 20  1  0
 20 21  1  0
 20 23  1  6
 21 22  2  0
 21 24  1  0
 25 24  1  6
 25 26  1  0
 25 33  1  0
 26 27  1  1
 26 28  1  0
 28 29  1  0
 29 30  1  1
 29 31  2  0
 29 32  1  0
 33 34  2  0
 33 35  1  0
 36 35  1  1
 36 37  1  0
 36 39  1  0
 37 38  2  0
 37 42  1  0
 39 40  1  1
 39 41  1  0
M  CHG  1   1   1
M  END
$$$$
