
     RDKit          3D

 42 43  0  0  0  0  0  0  0  0999 V2000
   12.7864  -13.5454  -16.4192 N   0  0  0  0  0  4  0  0  0  0  0  0
   13.0318  -13.0742  -15.0323 C   0  0  2  0  0  0  0  0  0  0  0  0
   11.7347  -13.0060  -14.3166 C   0  0  0  0  0  0  0  0  0  0  0  0
   10.6467  -13.0801  -14.9827 O   0  0  0  0  0  0  0  0  0  0  0  0
   13.6553  -11.6865  -15.1532 C   0  0  0  0  0  0  0  0  0  0  0  0
   13.3957  -11.0071  -16.4209 C   0  0  0  0  0  0  0  0  0  0  0  0
   12.6064  -11.5503  -17.4334 C   0  0  0  0  0  0  0  0  0  0  0  0
   13.9496   -9.7574  -16.6933 C   0  0  0  0  0  0  0  0  0  0  0  0
   12.3778  -10.9185  -18.6192 C   0  0  0  0  0  0  0  0  0  0  0  0
   13.7220   -9.1172  -17.8863 C   0  0  0  0  0  0  0  0  0  0  0  0
   12.9347   -9.6912  -18.8597 C   0  0  0  0  0  0  0  0  0  0  0  0
   11.6643  -12.8641  -12.9144 N   0  0  0  0  0  0  0  0  0  0  0  0
   12.6124  -12.2407  -12.0598 C   0  0  2  0  0  0  0  0  0  0  0  0
   13.6509  -13.2101  -11.5625 C   0  0  0  0  0  0  0  0  0  0  0  0
   13.3417  -14.4030  -11.4833 O   0  0  0  0  0  0  0  0  0  0  0  0
   11.8639  -11.7893  -10.8175 C   0  0  0  0  0  0  0  0  0  0  0  0
   10.6169  -12.6259  -10.7809 C   0  0  0  0  0  0  0  0  0  0  0  0
   10.5601  -13.3474  -12.0962 C   0  0  0  0  0  0  0  0  0  0  0  0
   14.9231  -12.7042  -11.2123 N   0  0  0  0  0  0  0  0  0  0  0  0
   16.0048  -13.6082  -10.8128 C   0  0  2  0  0  0  0  0  0  0  0  0
   16.2234  -13.4786   -9.3730 C   0  0  0  0  0  0  0  0  0  0  0  0
   15.7287  -12.5035   -8.7464 O   0  0  0  0  0  0  0  0  0  0  0  0
   17.2920  -13.2189  -11.5454 C   0  0  0  0  0  0  0  0  0  0  0  0
   16.9946  -14.4508   -8.6721 N   0  0  0  0  0  0  0  0  0  0  0  0
   17.2157  -14.3352   -7.2606 C   0  0  1  0  0  0  0  0  0  0  0  0
   17.1539  -15.6785   -6.5634 C   0  0  1  0  0  0  0  0  0  0  0  0
   15.7721  -16.2198   -6.4541 C   0  0  0  0  0  0  0  0  0  0  0  0
   17.9652  -16.6133   -7.2153 O   0  0  0  0  0  0  0  0  0  0  0  0
   17.8798  -18.1514   -6.5737 P   0  0  2  0  0  5  0  0  0  0  0  0
   19.4732  -18.7676   -6.4517 O   0  0  0  0  0  0  0  0  0  0  0  0
   17.1310  -19.1245   -7.4627 O   0  0  0  0  0  0  0  0  0  0  0  0
   17.2247  -18.1879   -5.0207 O   0  0  0  0  0  0  0  0  0  0  0  0
   18.4374  -13.5899   -6.9746 C   0  0  0  0  0  0  0  0  0  0  0  0
   19.5148  -13.9385   -7.5172 O   0  0  0  0  0  0  0  0  0  0  0  0
   18.4748  -12.4697   -6.0990 N   0  0  0  0  0  0  0  0  0  0  0  0
   19.4149  -12.4696   -4.9943 C   0  0  2  0  0  0  0  0  0  0  0  0
   20.8016  -12.4866   -5.5135 C   0  0  0  0  0  0  0  0  0  0  0  0
   20.9815  -12.4799   -6.7521 O   0  0  0  0  0  0  0  0  0  0  0  0
   19.2178  -13.7162   -4.1225 C   0  0  1  0  0  0  0  0  0  0  0  0
   17.9101  -14.3848   -4.4224 C   0  0  0  0  0  0  0  0  0  0  0  0
   20.3751  -14.6501   -4.3714 C   0  0  0  0  0  0  0  0  0  0  0  0
   21.9151  -12.5098   -4.6901 O   0  0  0  0  0  0  0  0  0  0  0  0
  2  1  1  6
  2  3  1  0
  2  5  1  0
  3  4  2  0
  3 12  1  0
  5  6  1  0
  6  7  2  0
  6  8  1  0
  7  9  1  0
  8 10  2  0
  9 11  2  0
 10 11  1  0
 12 13  1  0
 12 18  1  0
 13 14  1  1
 13 16  1  0
 14 15  2  0
 14 19  1  0
 16 17  1  0
 17 18  1  0
 19 20  1  0
 20 21  1  0
 20 23  1  6
 21 22  2  0
 21 24  1  0
 25 24  1  6
 25 26  1  0
 25 33  1  0
 26 27  1  6
 26 28  1  0
 28 29  1  0
 29 30  1  1
 29 31  2  0
 29 32  1  0
 33 34  2  0
 33 35  1  0
 36 35  1  6
 36 37  1  0
 36 39  1  0
 37 38  2  0
 37 42  1  0
 39 40  1  6
 39 41  1  0
M  CHG  1   1   1
M  END
$$$$
