
     RDKit          3D

 42 43  0  0  0  0  0  0  0  0999 V2000
   10.8283  -11.1385  -14.3645 N   0  0  0  0  0  4  0  0  0  0  0  0
   12.2407  -11.5633  -14.5383 C   0  0  2  0  0  0  0  0  0  0  0  0
   13.1258  -10.4240  -14.1952 C   0  0  0  0  0  0  0  0  0  0  0  0
   12.7092   -9.2297  -14.3773 O   0  0  0  0  0  0  0  0  0  0  0  0
   12.3975  -11.9454  -16.0076 C   0  0  0  0  0  0  0  0  0  0  0  0
   11.9734  -10.9175  -16.9560 C   0  0  0  0  0  0  0  0  0  0  0  0
   12.0687  -11.0651  -18.3388 C   0  0  0  0  0  0  0  0  0  0  0  0
   11.4528   -9.7024  -16.5140 C   0  0  0  0  0  0  0  0  0  0  0  0
   11.6839  -10.0982  -19.2191 C   0  0  0  0  0  0  0  0  0  0  0  0
   11.0638   -8.7258  -17.3969 C   0  0  0  0  0  0  0  0  0  0  0  0
   11.1755   -8.9142  -18.7566 C   0  0  0  0  0  0  0  0  0  0  0  0
   14.4202  -10.6188  -13.6681 N   0  0  0  0  0  0  0  0  0  0  0  0
   15.1469  -11.8368  -13.5883 C   0  0  2  0  0  0  0  0  0  0  0  0
   14.8876  -12.5682  -12.2986 C   0  0  0  0  0  0  0  0  0  0  0  0
   15.6540  -12.3663  -11.3518 O   0  0  0  0  0  0  0  0  0  0  0  0
   16.6215  -11.4744  -13.5492 C   0  0  0  0  0  0  0  0  0  0  0  0
   16.6657  -10.0447  -13.0905 C   0  0  0  0  0  0  0  0  0  0  0  0
   15.2462   -9.5566  -13.1099 C   0  0  0  0  0  0  0  0  0  0  0  0
   13.7822  -13.4468  -12.2401 N   0  0  0  0  0  0  0  0  0  0  0  0
   13.3527  -14.0265  -10.9648 C   0  0  2  0  0  0  0  0  0  0  0  0
   14.3453  -15.0091  -10.5326 C   0  0  0  0  0  0  0  0  0  0  0  0
   14.5762  -16.0247  -11.2421 O   0  0  0  0  0  0  0  0  0  0  0  0
   12.0069  -14.7326  -11.1526 C   0  0  0  0  0  0  0  0  0  0  0  0
   15.0550  -14.8251   -9.3105 N   0  0  0  0  0  0  0  0  0  0  0  0
   16.0073  -15.7970   -8.8600 C   0  0  1  0  0  0  0  0  0  0  0  0
   17.4170  -15.4578   -9.2987 C   0  0  1  0  0  0  0  0  0  0  0  0
   17.5325  -15.2098  -10.7613 C   0  0  0  0  0  0  0  0  0  0  0  0
   17.8984  -14.3441   -8.6025 O   0  0  0  0  0  0  0  0  0  0  0  0
   19.2383  -13.6345   -9.2995 P   0  0  2  0  0  5  0  0  0  0  0  0
   19.6335  -12.2360   -8.3929 O   0  0  0  0  0  0  0  0  0  0  0  0
   18.9849  -13.1486  -10.7128 O   0  0  0  0  0  0  0  0  0  0  0  0
   20.6011  -14.6269   -9.2803 O   0  0  0  0  0  0  0  0  0  0  0  0
   15.8880  -16.0306   -7.4244 C   0  0  0  0  0  0  0  0  0  0  0  0
   15.2318  -15.2244   -6.7200 O   0  0  0  0  0  0  0  0  0  0  0  0
   16.4850  -17.1421   -6.7678 N   0  0  0  0  0  0  0  0  0  0  0  0
   16.3465  -17.2687   -5.3294 C   0  0  2  0  0  0  0  0  0  0  0  0
   17.6451  -16.9945   -4.6727 C   0  0  0  0  0  0  0  0  0  0  0  0
   18.6094  -16.6196   -5.3770 O   0  0  0  0  0  0  0  0  0  0  0  0
   15.9154  -18.6926   -4.9556 C   0  0  1  0  0  0  0  0  0  0  0  0
   15.8415  -19.5712   -6.1678 C   0  0  0  0  0  0  0  0  0  0  0  0
   16.9025  -19.2331   -3.9522 C   0  0  0  0  0  0  0  0  0  0  0  0
   17.8452  -17.1340   -3.3092 O   0  0  0  0  0  0  0  0  0  0  0  0
  2  1  1  6
  2  3  1  0
  2  5  1  0
  3  4  2  0
  3 12  1  0
  5  6  1  0
  6  7  2  0
  6  8  1  0
  7  9  1  0
  8 10  2  0
  9 11  2  0
 10 11  1  0
 12 13  1  0
 12 18  1  0
 13 14  1  1
 13 16  1  0
 14 15  2  0
 14 19  1  0
 16 17  1  0
 17 18  1  0
 19 20  1  0
 20 21  1  0
 20 23  1  6
 21 22  2  0
 21 24  1  0
 25 24  1  1
 25 26  1  0
 25 33  1  0
 26 27  1  6
 26 28  1  0
 28 29  1  0
 29 30  1  1
 29 31  2  0
 29 32  1  0
 33 34  2  0
 33 35  1  0
 36 35  1  6
 36 37  1  0
 36 39  1  0
 37 38  2  0
 37 42  1  0
 39 40  1  6
 39 41  1  0
M  CHG  1   1   1
M  END
$$$$
