
     RDKit          3D

 42 43  0  0  0  0  0  0  0  0999 V2000
   10.2105  -11.1536  -17.1211 N   0  0  0  0  0  4  0  0  0  0  0  0
   10.9202  -11.5823  -15.8891 C   0  0  2  0  0  0  0  0  0  0  0  0
   10.1906  -11.0534  -14.7113 C   0  0  0  0  0  0  0  0  0  0  0  0
    8.9212  -10.9186  -14.7691 O   0  0  0  0  0  0  0  0  0  0  0  0
   12.3219  -10.9837  -15.9694 C   0  0  0  0  0  0  0  0  0  0  0  0
   12.3594   -9.5457  -16.2274 C   0  0  0  0  0  0  0  0  0  0  0  0
   13.4421   -8.7350  -15.8902 C   0  0  0  0  0  0  0  0  0  0  0  0
   11.2820   -8.8944  -16.8255 C   0  0  0  0  0  0  0  0  0  0  0  0
   13.4671   -7.3920  -16.1211 C   0  0  0  0  0  0  0  0  0  0  0  0
   11.3028   -7.5418  -17.0602 C   0  0  0  0  0  0  0  0  0  0  0  0
   12.3945   -6.7785  -16.7105 C   0  0  0  0  0  0  0  0  0  0  0  0
   10.8581  -10.6952  -13.5208 N   0  0  0  0  0  0  0  0  0  0  0  0
   12.2285  -10.3541  -13.3669 C   0  0  2  0  0  0  0  0  0  0  0  0
   13.0831  -11.5582  -13.0751 C   0  0  0  0  0  0  0  0  0  0  0  0
   12.6125  -12.6754  -13.3094 O   0  0  0  0  0  0  0  0  0  0  0  0
   12.3346   -9.4825  -12.1275 C   0  0  0  0  0  0  0  0  0  0  0  0
   11.0983   -9.7793  -11.3278 C   0  0  0  0  0  0  0  0  0  0  0  0
   10.2166  -10.6089  -12.2157 C   0  0  0  0  0  0  0  0  0  0  0  0
   14.3773  -11.3465  -12.5484 N   0  0  0  0  0  0  0  0  0  0  0  0
   15.3108  -12.4636  -12.3831 C   0  0  2  0  0  0  0  0  0  0  0  0
   15.4985  -12.7172  -10.9554 C   0  0  0  0  0  0  0  0  0  0  0  0
   14.9731  -11.9495  -10.1053 O   0  0  0  0  0  0  0  0  0  0  0  0
   16.6624  -12.0953  -13.0018 C   0  0  0  0  0  0  0  0  0  0  0  0
   16.2742  -13.8300  -10.5183 N   0  0  0  0  0  0  0  0  0  0  0  0
   16.5559  -14.0284   -9.1270 C   0  0  1  0  0  0  0  0  0  0  0  0
   17.3987  -15.2641   -8.8879 C   0  0  1  0  0  0  0  0  0  0  0  0
   16.8099  -16.4983   -9.4746 C   0  0  0  0  0  0  0  0  0  0  0  0
   18.6923  -15.0866   -9.3897 O   0  0  0  0  0  0  0  0  0  0  0  0
   19.7054  -16.3874   -9.1315 P   0  0  2  0  0  5  0  0  0  0  0  0
   21.3222  -15.8418   -9.2798 O   0  0  0  0  0  0  0  0  0  0  0  0
   19.5447  -17.4800  -10.1700 O   0  0  0  0  0  0  0  0  0  0  0  0
   19.5559  -17.0498   -7.5884 O   0  0  0  0  0  0  0  0  0  0  0  0
   17.1114  -12.8225   -8.5212 C   0  0  0  0  0  0  0  0  0  0  0  0
   17.4248  -11.8517   -9.2534 O   0  0  0  0  0  0  0  0  0  0  0  0
   17.3206  -12.6842   -7.1212 N   0  0  0  0  0  0  0  0  0  0  0  0
   17.9830  -11.4943   -6.6216 C   0  0  2  0  0  0  0  0  0  0  0  0
   18.5900  -11.7735   -5.3001 C   0  0  0  0  0  0  0  0  0  0  0  0
   18.3022  -12.8438   -4.7187 O   0  0  0  0  0  0  0  0  0  0  0  0
   16.9743  -10.3514   -6.4501 C   0  0  1  0  0  0  0  0  0  0  0  0
   15.8211  -10.5010   -7.3961 C   0  0  0  0  0  0  0  0  0  0  0  0
   16.5051  -10.3513   -5.0172 C   0  0  0  0  0  0  0  0  0  0  0  0
   19.4655  -10.9024   -4.6730 O   0  0  0  0  0  0  0  0  0  0  0  0
  2  1  1  6
  2  3  1  0
  2  5  1  0
  3  4  2  0
  3 12  1  0
  5  6  1  0
  6  7  2  0
  6  8  1  0
  7  9  1  0
  8 10  2  0
  9 11  2  0
 10 11  1  0
 12 13  1  0
 12 18  1  0
 13 14  1  1
 13 16  1  0
 14 15  2  0
 14 19  1  0
 16 17  1  0
 17 18  1  0
 19 20  1  0
 20 21  1  0
 20 23  1  1
 21 22  2  0
 21 24  1  0
 25 24  1  6
 25 26  1  0
 25 33  1  0
 26 27  1  6
 26 28  1  0
 28 29  1  0
 29 30  1  1
 29 31  2  0
 29 32  1  0
 33 34  2  0
 33 35  1  0
 36 35  1  1
 36 37  1  0
 36 39  1  0
 37 38  2  0
 37 42  1  0
 39 40  1  6
 39 41  1  0
M  CHG  1   1   1
M  END
$$$$
