
     RDKit          3D

 42 43  0  0  0  0  0  0  0  0999 V2000
    7.4446  -10.8307  -11.0580 N   0  0  0  0  0  4  0  0  0  0  0  0
    8.7173  -10.0794  -11.2044 C   0  0  2  0  0  0  0  0  0  0  0  0
    9.5766  -10.7859  -12.1851 C   0  0  0  0  0  0  0  0  0  0  0  0
    9.0982  -11.7725  -12.8414 O   0  0  0  0  0  0  0  0  0  0  0  0
    9.3705  -10.0662   -9.8252 C   0  0  0  0  0  0  0  0  0  0  0  0
    9.7422  -11.3829   -9.3113 C   0  0  0  0  0  0  0  0  0  0  0  0
   10.7579  -11.5819   -8.3774 C   0  0  0  0  0  0  0  0  0  0  0  0
    9.0932  -12.5355   -9.7507 C   0  0  0  0  0  0  0  0  0  0  0  0
   11.1096  -12.8132   -7.9109 C   0  0  0  0  0  0  0  0  0  0  0  0
    9.4440  -13.7778   -9.2834 C   0  0  0  0  0  0  0  0  0  0  0  0
   10.4546  -13.9284   -8.3599 C   0  0  0  0  0  0  0  0  0  0  0  0
   10.9131  -10.3985  -12.4195 N   0  0  0  0  0  0  0  0  0  0  0  0
   11.8459  -11.0024  -13.3044 C   0  0  2  0  0  0  0  0  0  0  0  0
   12.6426  -12.0888  -12.6332 C   0  0  0  0  0  0  0  0  0  0  0  0
   12.9952  -11.9123  -11.4631 O   0  0  0  0  0  0  0  0  0  0  0  0
   12.8625   -9.9368  -13.6760 C   0  0  0  0  0  0  0  0  0  0  0  0
   12.7693   -8.9046  -12.5887 C   0  0  0  0  0  0  0  0  0  0  0  0
   11.5650   -9.2692  -11.7698 C   0  0  0  0  0  0  0  0  0  0  0  0
   12.9451  -13.2515  -13.3772 N   0  0  0  0  0  0  0  0  0  0  0  0
   14.2513  -13.9033  -13.2505 C   0  0  2  0  0  0  0  0  0  0  0  0
   14.9313  -13.3763  -12.0684 C   0  0  0  0  0  0  0  0  0  0  0  0
   14.8097  -12.1599  -11.7621 O   0  0  0  0  0  0  0  0  0  0  0  0
   15.0987  -13.5932  -14.4879 C   0  0  0  0  0  0  0  0  0  0  0  0
   15.7330  -14.2320  -11.2584 N   0  0  0  0  0  0  0  0  0  0  0  0
   16.3735  -13.7366  -10.0756 C   0  0  1  0  0  0  0  0  0  0  0  0
   16.9669  -14.8522   -9.2404 C   0  0  1  0  0  0  0  0  0  0  0  0
   16.1610  -16.1026   -9.2740 C   0  0  0  0  0  0  0  0  0  0  0  0
   18.2747  -15.1352   -9.6484 O   0  0  0  0  0  0  0  0  0  0  0  0
   19.0558  -16.2592   -8.6938 P   0  0  2  0  0  5  0  0  0  0  0  0
   20.4309  -16.8201   -9.5471 O   0  0  0  0  0  0  0  0  0  0  0  0
   18.2149  -17.4899   -8.4174 O   0  0  0  0  0  0  0  0  0  0  0  0
   19.6153  -15.6199   -7.2376 O   0  0  0  0  0  0  0  0  0  0  0  0
   17.3286  -12.6798  -10.3930 C   0  0  0  0  0  0  0  0  0  0  0  0
   17.9467  -12.7136  -11.4855 O   0  0  0  0  0  0  0  0  0  0  0  0
   17.6024  -11.5937   -9.5164 N   0  0  0  0  0  0  0  0  0  0  0  0
   18.7363  -10.7325   -9.7939 C   0  0  2  0  0  0  0  0  0  0  0  0
   19.8060  -10.9726   -8.7985 C   0  0  0  0  0  0  0  0  0  0  0  0
   19.5984  -11.7934   -7.8767 O   0  0  0  0  0  0  0  0  0  0  0  0
   18.3241   -9.2577   -9.7033 C   0  0  1  0  0  0  0  0  0  0  0  0
   17.9846   -8.7068  -11.0554 C   0  0  0  0  0  0  0  0  0  0  0  0
   17.1485   -9.1564   -8.7645 C   0  0  0  0  0  0  0  0  0  0  0  0
   21.0319  -10.3290   -8.8385 O   0  0  0  0  0  0  0  0  0  0  0  0
  2  1  1  1
  2  3  1  0
  2  5  1  0
  3  4  2  0
  3 12  1  0
  5  6  1  0
  6  7  2  0
  6  8  1  0
  7  9  1  0
  8 10  2  0
  9 11  2  0
 10 11  1  0
 12 13  1  0
 12 18  1  0
 13 14  1  1
 13 16  1  0
 14 15  2  0
 14 19  1  0
 16 17  1  0
 17 18  1  0
 19 20  1  0
 20 21  1  0
 20 23  1  6
 21 22  2  0
 21 24  1  0
 25 24  1  6
 25 26  1  0
 25 33  1  0
 26 27  1  6
 26 28  1  0
 28 29  1  0
 29 30  1  6
 29 31  2  0
 29 32  1  0
 33 34  2  0
 33 35  1  0
 36 35  1  1
 36 37  1  0
 36 39  1  0
 37 38  2  0
 37 42  1  0
 39 40  1  6
 39 41  1  0
M  CHG  1   1   1
M  END
$$$$
