
     RDKit          3D

 42 43  0  0  0  0  0  0  0  0999 V2000
    9.3387    8.9098   14.4158 N   0  0  0  0  0  4  0  0  0  0  0  0
   10.6229    9.4107   14.9685 C   0  0  2  0  0  0  0  0  0  0  0  0
   11.0335   10.6127   14.2032 C   0  0  0  0  0  0  0  0  0  0  0  0
   10.2716   11.0577   13.2788 O   0  0  0  0  0  0  0  0  0  0  0  0
   11.6370    8.2843   14.7896 C   0  0  0  0  0  0  0  0  0  0  0  0
   11.4839    7.1690   15.7217 C   0  0  0  0  0  0  0  0  0  0  0  0
   11.8772    7.2279   17.0577 C   0  0  0  0  0  0  0  0  0  0  0  0
   10.9364    5.9560   15.3075 C   0  0  0  0  0  0  0  0  0  0  0  0
   11.7442    6.1807   17.9199 C   0  0  0  0  0  0  0  0  0  0  0  0
   10.8004    4.8985   16.1724 C   0  0  0  0  0  0  0  0  0  0  0  0
   11.2027    5.0008   17.4856 C   0  0  0  0  0  0  0  0  0  0  0  0
   12.2451   11.2861   14.4676 N   0  0  0  0  0  0  0  0  0  0  0  0
   12.6649   12.5432   13.9565 C   0  0  2  0  0  0  0  0  0  0  0  0
   13.4254   12.4048   12.6649 C   0  0  0  0  0  0  0  0  0  0  0  0
   12.7898   12.4595   11.6077 O   0  0  0  0  0  0  0  0  0  0  0  0
   13.6650   13.1155   14.9462 C   0  0  0  0  0  0  0  0  0  0  0  0
   14.1668   11.9357   15.7288 C   0  0  0  0  0  0  0  0  0  0  0  0
   13.2897   10.7786   15.3471 C   0  0  0  0  0  0  0  0  0  0  0  0
   14.8247   12.2192   12.7307 N   0  0  0  0  0  0  0  0  0  0  0  0
   15.6761   12.5257   11.5783 C   0  0  2  0  0  0  0  0  0  0  0  0
   15.1588   13.7193   10.9110 C   0  0  0  0  0  0  0  0  0  0  0  0
   14.4952   14.5682   11.5645 O   0  0  0  0  0  0  0  0  0  0  0  0
   15.6421   11.3542   10.5926 C   0  0  0  0  0  0  0  0  0  0  0  0
   15.4011   13.9292    9.5223 N   0  0  0  0  0  0  0  0  0  0  0  0
   15.9557   15.1641    9.0514 C   0  0  1  0  0  0  0  0  0  0  0  0
   17.2286   15.5325    9.7853 C   0  0  1  0  0  0  0  0  0  0  0  0
   16.9859   16.3381   11.0126 C   0  0  0  0  0  0  0  0  0  0  0  0
   17.9561   14.3862   10.1223 O   0  0  0  0  0  0  0  0  0  0  0  0
   19.6089   14.6144   10.1502 P   0  0  2  0  0  5  0  0  0  0  0  0
   20.2662   13.9283    8.7252 O   0  0  0  0  0  0  0  0  0  0  0  0
   20.2876   13.8978   11.3008 O   0  0  0  0  0  0  0  0  0  0  0  0
   20.0549   16.2402   10.1569 O   0  0  0  0  0  0  0  0  0  0  0  0
   16.1052   15.1588    7.5997 C   0  0  0  0  0  0  0  0  0  0  0  0
   16.5452   14.1310    7.0279 O   0  0  0  0  0  0  0  0  0  0  0  0
   15.7732   16.2744    6.7823 N   0  0  0  0  0  0  0  0  0  0  0  0
   15.9737   16.1822    5.3485 C   0  0  2  0  0  0  0  0  0  0  0  0
   16.9787   17.1799    4.9158 C   0  0  0  0  0  0  0  0  0  0  0  0
   17.4756   17.0777    3.7716 O   0  0  0  0  0  0  0  0  0  0  0  0
   14.6641   16.4722    4.6044 C   0  0  1  0  0  0  0  0  0  0  0  0
   14.8503   16.3677    3.1207 C   0  0  0  0  0  0  0  0  0  0  0  0
   13.6224   15.4968    5.0912 C   0  0  0  0  0  0  0  0  0  0  0  0
   17.3978   18.2264    5.7206 O   0  0  0  0  0  0  0  0  0  0  0  0
  2  1  1  6
  2  3  1  0
  2  5  1  0
  3  4  2  0
  3 12  1  0
  5  6  1  0
  6  7  2  0
  6  8  1  0
  7  9  1  0
  8 10  2  0
  9 11  2  0
 10 11  1  0
 12 13  1  0
 12 18  1  0
 13 14  1  6
 13 16  1  0
 14 15  2  0
 14 19  1  0
 16 17  1  0
 17 18  1  0
 19 20  1  0
 20 21  1  0
 20 23  1  6
 21 22  2  0
 21 24  1  0
 25 24  1  1
 25 26  1  0
 25 33  1  0
 26 27  1  1
 26 28  1  0
 28 29  1  0
 29 30  1  6
 29 31  2  0
 29 32  1  0
 33 34  2  0
 33 35  1  0
 36 35  1  1
 36 37  1  0
 36 39  1  0
 37 38  2  0
 37 42  1  0
 39 40  1  6
 39 41  1  0
M  CHG  1   1   1
M  END
$$$$
