
     RDKit          3D

 41 44  0  0  0  0  0  0  0  0999 V2000
   70.7547   57.3041   15.3856 C   0  0  1  0  0  0  0  0  0  0  0  0
   70.7563   57.8485   16.8249 C   0  0  2  0  0  0  0  0  0  0  0  0
   72.8465   58.0925   18.2894 C   0  0  0  0  0  0  0  0  0  0  0  0
   74.1704   59.5466   19.6735 C   0  0  1  0  0  0  0  0  0  0  0  0
   74.8647   60.0661   18.4785 C   0  0  0  0  0  0  0  0  0  0  0  0
   74.9586   61.7370   19.9463 C   0  0  1  0  0  0  0  0  0  0  0  0
   73.0969   62.9485   20.3404 C   0  0  0  0  0  0  0  0  0  0  0  0
   69.5224   58.6240   17.0359 C   0  0  0  0  0  0  0  0  0  0  0  0
   67.1629   51.9791   13.2179 C   0  0  0  0  0  0  0  0  0  0  0  0
   68.1086   51.4821   14.0780 C   0  0  0  0  0  0  0  0  0  0  0  0
   68.8817   52.3305   14.8739 C   0  0  0  0  0  0  0  0  0  0  0  0
   68.7249   53.7002   14.8248 C   0  0  0  0  0  0  0  0  0  0  0  0
   67.7708   54.1823   13.9550 C   0  0  0  0  0  0  0  0  0  0  0  0
   66.9981   53.3461   13.1617 C   0  0  0  0  0  0  0  0  0  0  0  0
   71.7287   53.9641   14.4311 C   0  0  0  0  0  0  0  0  0  0  0  0
   71.8104   56.2356   15.1823 C   0  0  0  0  0  0  0  0  0  0  0  0
   73.9165   60.7934   20.4904 C   0  0  1  0  0  0  0  0  0  0  0  0
   72.6517   61.5116   20.1352 C   0  0  0  0  0  0  0  0  0  0  0  0
   69.3694   59.1334   18.4254 C   0  0  0  0  0  0  0  0  0  0  0  0
   69.0028   58.3167   19.4430 C   0  0  0  0  0  0  0  0  0  0  0  0
   68.8733   58.8424   20.7125 C   0  0  0  0  0  0  0  0  0  0  0  0
   69.1142   60.1809   20.9354 C   0  0  0  0  0  0  0  0  0  0  0  0
   69.4855   61.0183   19.9151 C   0  0  0  0  0  0  0  0  0  0  0  0
   69.6069   60.4626   18.6582 C   0  0  0  0  0  0  0  0  0  0  0  0
   64.8830   51.3625   12.6280 C   0  0  0  0  0  0  0  0  0  0  0  0
   72.9022   51.5435   13.7266 C   0  0  0  0  0  0  0  0  0  0  0  0
   73.1289   53.9627   13.9713 C   0  0  2  0  0  0  0  0  0  0  0  0
   73.6039   52.7914   13.1806 C   0  0  0  0  0  0  0  0  0  0  0  0
   74.0599   54.1572   15.1540 C   0  0  0  0  0  0  0  0  0  0  0  0
   66.3268   51.0754   12.3559 C   0  0  1  0  0  0  0  0  0  0  0  0
   71.3044   54.8991   15.4139 N   0  0  0  0  0  0  0  0  0  0  0  0
   71.9734   58.4039   17.2550 N   0  0  0  0  0  0  0  0  0  0  0  0
   68.9830   56.1507   15.7840 O   0  0  0  0  0  0  0  0  0  0  0  0
   69.5200   54.3297   17.2441 O   0  0  0  0  0  0  0  0  0  0  0  0
   69.5498   56.5026   15.3974 O   0  0  0  0  0  0  0  0  0  0  0  0
   73.5624   57.0908   18.2168 O   0  0  0  0  0  0  0  0  0  0  0  0
   72.9778   58.8634   19.4552 O   0  0  0  0  0  0  0  0  0  0  0  0
   74.9886   61.4448   18.5931 O   0  0  0  0  0  0  0  0  0  0  0  0
   74.4564   62.9923   20.1987 O   0  0  0  0  0  0  0  0  0  0  0  0
   66.5954   51.2182   11.0145 O   0  0  0  0  0  0  0  0  0  0  0  0
   69.6659   54.8008   15.8285 S   0  0  1  0  0  6  0  0  0  0  0  0
  1  2  1  0
 16  1  1  0
  1 35  1  1
  2  8  1  6
  2 32  1  0
 32  3  1  0
  3 36  2  0
  3 37  1  0
  4  5  1  0
  4 17  1  0
  4 37  1  6
  5 38  1  0
 17  6  1  0
  6 38  1  6
  6 39  1  0
 18  7  1  0
  7 39  1  0
  8 19  1  0
 10  9  2  0
 14  9  1  0
  9 30  1  0
 11 10  1  0
 12 11  2  0
 12 13  1  0
 41 12  1  0
 13 14  2  0
 15 27  1  0
 31 15  1  0
 31 16  1  0
 17 18  1  6
 19 20  2  0
 19 24  1  0
 20 21  1  0
 21 22  2  0
 23 22  1  0
 24 23  2  0
 30 25  1  6
 28 26  1  0
 27 28  1  0
 27 29  1  1
 30 40  1  0
 41 31  1  6
 41 33  2  0
 41 34  2  0
M  END
$$$$
