
     RDKit          3D

 41 44  0  0  0  0  0  0  0  0999 V2000
   71.1185   57.6732   15.1221 C   0  0  1  0  0  0  0  0  0  0  0  0
   70.7412   58.0511   16.5652 C   0  0  2  0  0  0  0  0  0  0  0  0
   72.7380   58.5101   18.1063 C   0  0  0  0  0  0  0  0  0  0  0  0
   74.5181   59.7830   19.1033 C   0  0  1  0  0  0  0  0  0  0  0  0
   75.5226   60.8257   18.8140 C   0  0  0  0  0  0  0  0  0  0  0  0
   74.1389   61.7769   20.2755 C   0  0  1  0  0  0  0  0  0  0  0  0
   72.1052   62.4530   19.5711 C   0  0  0  0  0  0  0  0  0  0  0  0
   69.3360   58.4914   16.5841 C   0  0  0  0  0  0  0  0  0  0  0  0
   66.9048   51.6575   13.2426 C   0  0  0  0  0  0  0  0  0  0  0  0
   66.5884   52.9913   13.1975 C   0  0  0  0  0  0  0  0  0  0  0  0
   67.2190   53.9145   14.0346 C   0  0  0  0  0  0  0  0  0  0  0  0
   68.1828   53.5206   14.9396 C   0  0  0  0  0  0  0  0  0  0  0  0
   68.4879   52.1769   14.9720 C   0  0  0  0  0  0  0  0  0  0  0  0
   67.8668   51.2537   14.1430 C   0  0  0  0  0  0  0  0  0  0  0  0
   71.2811   54.3748   14.6952 C   0  0  0  0  0  0  0  0  0  0  0  0
   70.2641   56.5394   14.5909 C   0  0  0  0  0  0  0  0  0  0  0  0
   73.4077   60.5559   19.7786 C   0  0  1  0  0  0  0  0  0  0  0  0
   72.4217   61.1657   18.8311 C   0  0  0  0  0  0  0  0  0  0  0  0
   68.8958   59.0218   17.9026 C   0  0  0  0  0  0  0  0  0  0  0  0
   68.8474   60.3534   18.1501 C   0  0  0  0  0  0  0  0  0  0  0  0
   68.4338   60.7910   19.3920 C   0  0  0  0  0  0  0  0  0  0  0  0
   68.0770   59.8806   20.3632 C   0  0  0  0  0  0  0  0  0  0  0  0
   68.1215   58.5307   20.1263 C   0  0  0  0  0  0  0  0  0  0  0  0
   68.5385   58.1253   18.8752 C   0  0  0  0  0  0  0  0  0  0  0  0
   64.7509   50.7682   12.5385 C   0  0  0  0  0  0  0  0  0  0  0  0
   73.3706   52.4272   14.0289 C   0  0  0  0  0  0  0  0  0  0  0  0
   72.6694   54.7423   14.3642 C   0  0  2  0  0  0  0  0  0  0  0  0
   73.4312   53.8446   13.4498 C   0  0  0  0  0  0  0  0  0  0  0  0
   73.4716   54.9270   15.6393 C   0  0  0  0  0  0  0  0  0  0  0  0
   66.2313   50.6555   12.3476 C   0  0  1  0  0  0  0  0  0  0  0  0
   70.4325   55.3135   15.3424 N   0  0  0  0  0  0  0  0  0  0  0  0
   71.6913   58.8275   17.2502 N   0  0  0  0  0  0  0  0  0  0  0  0
   68.0178   55.7274   16.3867 O   0  0  0  0  0  0  0  0  0  0  0  0
   69.3255   53.9239   17.2662 O   0  0  0  0  0  0  0  0  0  0  0  0
   70.5705   58.7965   14.3926 O   0  0  0  0  0  0  0  0  0  0  0  0
   72.5720   57.6893   19.0118 O   0  0  0  0  0  0  0  0  0  0  0  0
   74.0187   59.0773   18.0127 O   0  0  0  0  0  0  0  0  0  0  0  0
   75.0438   62.0496   19.2634 O   0  0  0  0  0  0  0  0  0  0  0  0
   73.1672   62.7444   20.3820 O   0  0  0  0  0  0  0  0  0  0  0  0
   66.5537   50.8227   11.0209 O   0  0  0  0  0  0  0  0  0  0  0  0
   69.0153   54.6581   15.9966 S   0  0  1  0  0  6  0  0  0  0  0  0
  1  2  1  0
 16  1  1  0
  1 35  1  6
  2  8  1  6
  2 32  1  0
 32  3  1  0
  3 36  2  0
  3 37  1  0
  4  5  1  0
  4 17  1  0
  4 37  1  6
  5 38  1  0
 17  6  1  0
  6 38  1  6
  6 39  1  0
 18  7  1  0
  7 39  1  0
  8 19  1  0
 10  9  2  0
 14  9  1  0
  9 30  1  0
 11 10  1  0
 12 11  2  0
 12 13  1  0
 41 12  1  0
 13 14  2  0
 15 27  1  0
 31 15  1  0
 31 16  1  0
 17 18  1  6
 19 20  2  0
 19 24  1  0
 20 21  1  0
 21 22  2  0
 23 22  1  0
 24 23  2  0
 30 25  1  6
 28 26  1  0
 27 28  1  0
 27 29  1  1
 30 40  1  0
 41 31  1  6
 41 33  2  0
 41 34  2  0
M  END
$$$$
