
     RDKit          3D

 41 44  0  0  0  0  0  0  0  0999 V2000
   70.8604   57.3225   14.7604 C   0  0  1  0  0  0  0  0  0  0  0  0
   70.9713   57.9092   16.1787 C   0  0  2  0  0  0  0  0  0  0  0  0
   72.8147   58.5077   17.8571 C   0  0  0  0  0  0  0  0  0  0  0  0
   74.5672   59.5994   19.0899 C   0  0  1  0  0  0  0  0  0  0  0  0
   75.6594   60.5912   19.0315 C   0  0  0  0  0  0  0  0  0  0  0  0
   74.2960   61.3581   20.6152 C   0  0  1  0  0  0  0  0  0  0  0  0
   72.3496   62.3221   20.0057 C   0  0  0  0  0  0  0  0  0  0  0  0
   70.1781   59.1485   16.2384 C   0  0  0  0  0  0  0  0  0  0  0  0
   66.5383   51.3898   13.2978 C   0  0  0  0  0  0  0  0  0  0  0  0
   66.3642   52.7494   13.2502 C   0  0  0  0  0  0  0  0  0  0  0  0
   67.0848   53.6021   14.0895 C   0  0  0  0  0  0  0  0  0  0  0  0
   67.9978   53.1102   14.9991 C   0  0  0  0  0  0  0  0  0  0  0  0
   68.1597   51.7419   15.0339 C   0  0  0  0  0  0  0  0  0  0  0  0
   67.4485   50.8881   14.2029 C   0  0  0  0  0  0  0  0  0  0  0  0
   71.0142   54.2200   14.4453 C   0  0  0  0  0  0  0  0  0  0  0  0
   69.7826   56.2606   14.6687 C   0  0  0  0  0  0  0  0  0  0  0  0
   73.4935   60.3189   19.8746 C   0  0  1  0  0  0  0  0  0  0  0  0
   72.5955   61.1775   19.0391 C   0  0  0  0  0  0  0  0  0  0  0  0
   69.4777   59.3453   17.5362 C   0  0  0  0  0  0  0  0  0  0  0  0
   68.7509   60.4614   17.7868 C   0  0  0  0  0  0  0  0  0  0  0  0
   68.1235   60.5938   19.0090 C   0  0  0  0  0  0  0  0  0  0  0  0
   68.2394   59.6009   19.9577 C   0  0  0  0  0  0  0  0  0  0  0  0
   68.9717   58.4668   19.7174 C   0  0  0  0  0  0  0  0  0  0  0  0
   69.5860   58.3641   18.4864 C   0  0  0  0  0  0  0  0  0  0  0  0
   66.2689   50.6316   11.0003 C   0  0  0  0  0  0  0  0  0  0  0  0
   73.1385   52.0880   13.9186 C   0  0  0  0  0  0  0  0  0  0  0  0
   72.4792   54.3593   14.5272 C   0  0  2  0  0  0  0  0  0  0  0  0
   73.3107   53.5709   13.5735 C   0  0  0  0  0  0  0  0  0  0  0  0
   72.9473   54.0588   15.9393 C   0  0  0  0  0  0  0  0  0  0  0  0
   65.7671   50.4631   12.4005 C   0  0  1  0  0  0  0  0  0  0  0  0
   70.1777   55.0094   15.2803 N   0  0  0  0  0  0  0  0  0  0  0  0
   72.2665   57.9209   16.7237 N   0  0  0  0  0  0  0  0  0  0  0  0
   67.9705   55.0743   16.7691 O   0  0  0  0  0  0  0  0  0  0  0  0
   69.5152   53.2803   17.1322 O   0  0  0  0  0  0  0  0  0  0  0  0
   70.2276   58.4189   14.0592 O   0  0  0  0  0  0  0  0  0  0  0  0
   72.2047   58.4769   18.9285 O   0  0  0  0  0  0  0  0  0  0  0  0
   74.0587   59.1579   17.8720 O   0  0  0  0  0  0  0  0  0  0  0  0
   75.2585   61.7425   19.6969 O   0  0  0  0  0  0  0  0  0  0  0  0
   73.3979   62.3648   20.8829 O   0  0  0  0  0  0  0  0  0  0  0  0
   65.8625   49.1457   12.7845 O   0  0  0  0  0  0  0  0  0  0  0  0
   68.9407   54.1551   16.0590 S   0  0  1  0  0  6  0  0  0  0  0  0
  1  2  1  0
 16  1  1  0
  1 35  1  6
  2  8  1  6
  2 32  1  0
 32  3  1  0
  3 36  2  0
  3 37  1  0
  4  5  1  0
  4 17  1  0
  4 37  1  6
  5 38  1  0
 17  6  1  0
  6 38  1  6
  6 39  1  0
 18  7  1  0
  7 39  1  0
  8 19  1  0
 10  9  2  0
 14  9  1  0
  9 30  1  0
 11 10  1  0
 12 11  2  0
 12 13  1  0
 41 12  1  0
 13 14  2  0
 15 27  1  0
 31 15  1  0
 31 16  1  0
 17 18  1  6
 19 20  2  0
 19 24  1  0
 20 21  1  0
 21 22  2  0
 23 22  1  0
 24 23  2  0
 30 25  1  6
 28 26  1  0
 27 28  1  0
 27 29  1  1
 30 40  1  0
 41 31  1  6
 41 33  2  0
 41 34  2  0
M  END
$$$$
