
     RDKit          3D

 41 44  0  0  0  0  0  0  0  0999 V2000
   70.5524   56.2837   17.3134 C   0  0  1  0  0  0  0  0  0  0  0  0
   70.7698   57.7913   17.5319 C   0  0  2  0  0  0  0  0  0  0  0  0
   72.8995   59.2165   17.6120 C   0  0  0  0  0  0  0  0  0  0  0  0
   73.2926   61.2254   18.8741 C   0  0  1  0  0  0  0  0  0  0  0  0
   73.2113   61.8793   20.1954 C   0  0  0  0  0  0  0  0  0  0  0  0
   75.3517   62.0663   19.6132 C   0  0  1  0  0  0  0  0  0  0  0  0
   76.6787   60.2462   19.7374 C   0  0  0  0  0  0  0  0  0  0  0  0
   69.5461   58.5058   17.1314 C   0  0  0  0  0  0  0  0  0  0  0  0
   67.2356   51.1170   12.5477 C   0  0  0  0  0  0  0  0  0  0  0  0
   66.7192   52.3850   12.6290 C   0  0  0  0  0  0  0  0  0  0  0  0
   67.1395   53.2767   13.6184 C   0  0  0  0  0  0  0  0  0  0  0  0
   68.0888   52.9164   14.5523 C   0  0  0  0  0  0  0  0  0  0  0  0
   68.5966   51.6388   14.4562 C   0  0  0  0  0  0  0  0  0  0  0  0
   68.1849   50.7473   13.4758 C   0  0  0  0  0  0  0  0  0  0  0  0
   70.9184   54.0114   14.4577 C   0  0  0  0  0  0  0  0  0  0  0  0
   70.5173   55.9233   15.8414 C   0  0  0  0  0  0  0  0  0  0  0  0
   74.7794   61.0296   18.6804 C   0  0  1  0  0  0  0  0  0  0  0  0
   75.3139   59.7653   19.2782 C   0  0  0  0  0  0  0  0  0  0  0  0
   68.6300   58.8002   18.2662 C   0  0  0  0  0  0  0  0  0  0  0  0
   67.7313   57.8862   18.7065 C   0  0  0  0  0  0  0  0  0  0  0  0
   66.9036   58.2127   19.7616 C   0  0  0  0  0  0  0  0  0  0  0  0
   66.9944   59.4535   20.3544 C   0  0  0  0  0  0  0  0  0  0  0  0
   67.8988   60.3876   19.9189 C   0  0  0  0  0  0  0  0  0  0  0  0
   68.7121   60.0308   18.8631 C   0  0  0  0  0  0  0  0  0  0  0  0
   67.0082   48.7573   11.9945 C   0  0  0  0  0  0  0  0  0  0  0  0
   73.6671   54.6233   13.4829 C   0  0  0  0  0  0  0  0  0  0  0  0
   72.0897   53.1274   14.5954 C   0  0  2  0  0  0  0  0  0  0  0  0
   73.4324   53.7615   14.7279 C   0  0  0  0  0  0  0  0  0  0  0  0
   72.1314   52.1438   13.4403 C   0  0  0  0  0  0  0  0  0  0  0  0
   66.7893   50.1490   11.4883 C   0  0  1  0  0  0  0  0  0  0  0  0
   70.2681   54.5150   15.6169 N   0  0  0  0  0  0  0  0  0  0  0  0
   72.0069   58.2897   17.0891 N   0  0  0  0  0  0  0  0  0  0  0  0
   67.7022   55.1915   15.8432 O   0  0  0  0  0  0  0  0  0  0  0  0
   68.4840   53.3182   17.1143 O   0  0  0  0  0  0  0  0  0  0  0  0
   71.8476   55.7622   17.6940 O   0  0  0  0  0  0  0  0  0  0  0  0
   74.0041   59.3783   17.0879 O   0  0  0  0  0  0  0  0  0  0  0  0
   72.6256   60.0118   18.7359 O   0  0  0  0  0  0  0  0  0  0  0  0
   74.4955   62.0344   20.7011 O   0  0  0  0  0  0  0  0  0  0  0  0
   76.6077   61.5992   19.9231 O   0  0  0  0  0  0  0  0  0  0  0  0
   65.4735   50.3220   11.1268 O   0  0  0  0  0  0  0  0  0  0  0  0
   68.6596   54.0201   15.8014 S   0  0  1  0  0  6  0  0  0  0  0  0
  1  2  1  0
 16  1  1  0
  1 35  1  1
  2  8  1  6
  2 32  1  0
 32  3  1  0
  3 36  2  0
  3 37  1  0
  4  5  1  0
  4 17  1  0
  4 37  1  1
  5 38  1  0
 17  6  1  0
  6 38  1  1
  6 39  1  0
 18  7  1  0
  7 39  1  0
  8 19  1  0
 10  9  2  0
 14  9  1  0
  9 30  1  0
 11 10  1  0
 12 11  2  0
 12 13  1  0
 41 12  1  0
 13 14  2  0
 15 27  1  0
 31 15  1  0
 31 16  1  0
 17 18  1  1
 19 20  2  0
 19 24  1  0
 20 21  1  0
 21 22  2  0
 23 22  1  0
 24 23  2  0
 30 25  1  1
 28 26  1  0
 27 28  1  0
 27 29  1  6
 30 40  1  0
 41 31  1  6
 41 33  2  0
 41 34  2  0
M  END
$$$$
