
     RDKit          3D

 41 44  0  0  0  0  0  0  0  0999 V2000
   71.6703   56.5723   15.8690 C   0  0  1  0  0  0  0  0  0  0  0  0
   72.5123   57.6541   16.5680 C   0  0  2  0  0  0  0  0  0  0  0  0
   72.0077   59.9282   17.6390 C   0  0  0  0  0  0  0  0  0  0  0  0
   71.7403   61.7704   19.1614 C   0  0  1  0  0  0  0  0  0  0  0  0
   71.1467   62.1431   20.4609 C   0  0  0  0  0  0  0  0  0  0  0  0
   73.3431   62.3006   20.7872 C   0  0  1  0  0  0  0  0  0  0  0  0
   74.5512   60.4085   21.0090 C   0  0  0  0  0  0  0  0  0  0  0  0
   73.6692   57.0078   17.2101 C   0  0  0  0  0  0  0  0  0  0  0  0
   67.5609   59.6690   20.4481 C   0  0  0  0  0  0  0  0  0  0  0  0
   66.4312   59.3028   19.7620 C   0  0  0  0  0  0  0  0  0  0  0  0
   66.5110   58.6650   18.5221 C   0  0  0  0  0  0  0  0  0  0  0  0
   67.7285   58.3799   17.9392 C   0  0  0  0  0  0  0  0  0  0  0  0
   68.8531   58.7553   18.6419 C   0  0  0  0  0  0  0  0  0  0  0  0
   68.7822   59.3884   19.8746 C   0  0  0  0  0  0  0  0  0  0  0  0
   68.9476   55.1994   15.9583 C   0  0  0  0  0  0  0  0  0  0  0  0
   70.3133   57.0969   15.4433 C   0  0  0  0  0  0  0  0  0  0  0  0
   73.1906   61.5187   19.5075 C   0  0  1  0  0  0  0  0  0  0  0  0
   73.4758   60.1254   19.9754 C   0  0  0  0  0  0  0  0  0  0  0  0
   74.8323   57.9170   17.3954 C   0  0  0  0  0  0  0  0  0  0  0  0
   75.7187   57.7366   18.4045 C   0  0  0  0  0  0  0  0  0  0  0  0
   76.7786   58.6114   18.5316 C   0  0  0  0  0  0  0  0  0  0  0  0
   76.9272   59.6529   17.6413 C   0  0  0  0  0  0  0  0  0  0  0  0
   76.0377   59.8471   16.6160 C   0  0  0  0  0  0  0  0  0  0  0  0
   74.9896   58.9555   16.5155 C   0  0  0  0  0  0  0  0  0  0  0  0
   67.6386   59.3265   22.8570 C   0  0  0  0  0  0  0  0  0  0  0  0
   68.2081   52.4157   14.9645 C   0  0  0  0  0  0  0  0  0  0  0  0
   68.7303   54.7677   14.5660 C   0  0  2  0  0  0  0  0  0  0  0  0
   69.1207   53.3773   14.1962 C   0  0  0  0  0  0  0  0  0  0  0  0
   69.4158   55.7315   13.6148 C   0  0  0  0  0  0  0  0  0  0  0  0
   67.4864   60.3572   21.7821 C   0  0  1  0  0  0  0  0  0  0  0  0
   69.2317   56.5625   16.2435 N   0  0  0  0  0  0  0  0  0  0  0  0
   71.7811   58.5982   17.3088 N   0  0  0  0  0  0  0  0  0  0  0  0
   66.5804   56.7993   16.1573 O   0  0  0  0  0  0  0  0  0  0  0  0
   67.8962   58.6227   15.3326 O   0  0  0  0  0  0  0  0  0  0  0  0
   72.3445   56.4833   14.5916 O   0  0  0  0  0  0  0  0  0  0  0  0
   72.9632   60.5350   17.1493 O   0  0  0  0  0  0  0  0  0  0  0  0
   71.1983   60.6590   18.5229 O   0  0  0  0  0  0  0  0  0  0  0  0
   72.1354   62.1039   21.4356 O   0  0  0  0  0  0  0  0  0  0  0  0
   74.3914   61.6962   21.4408 O   0  0  0  0  0  0  0  0  0  0  0  0
   68.4361   61.3413   21.9291 O   0  0  0  0  0  0  0  0  0  0  0  0
   67.8697   57.5578   16.3873 S   0  0  1  0  0  6  0  0  0  0  0  0
  1  2  1  0
 16  1  1  0
  1 35  1  6
  2  8  1  1
  2 32  1  0
 32  3  1  0
  3 36  2  0
  3 37  1  0
  4  5  1  0
  4 17  1  0
  4 37  1  1
  5 38  1  0
 17  6  1  0
  6 38  1  1
  6 39  1  0
 18  7  1  0
  7 39  1  0
  8 19  1  0
 10  9  2  0
 14  9  1  0
  9 30  1  0
 11 10  1  0
 12 11  2  0
 12 13  1  0
 41 12  1  0
 13 14  2  0
 15 27  1  0
 31 15  1  0
 31 16  1  0
 17 18  1  1
 19 20  2  0
 19 24  1  0
 20 21  1  0
 21 22  2  0
 23 22  1  0
 24 23  2  0
 30 25  1  1
 28 26  1  0
 27 28  1  0
 27 29  1  6
 30 40  1  0
 41 31  1  1
 41 33  2  0
 41 34  2  0
M  END
$$$$
