
     RDKit          3D

 41 44  0  0  0  0  0  0  0  0999 V2000
   71.7259   56.9877   15.2367 C   0  0  1  0  0  0  0  0  0  0  0  0
   71.3216   58.0033   16.3197 C   0  0  2  0  0  0  0  0  0  0  0  0
   71.4486   58.2480   18.8687 C   0  0  0  0  0  0  0  0  0  0  0  0
   71.7962   58.5102   21.2337 C   0  0  1  0  0  0  0  0  0  0  0  0
   72.0457   59.9646   21.2832 C   0  0  0  0  0  0  0  0  0  0  0  0
   70.0362   59.7135   22.2072 C   0  0  1  0  0  0  0  0  0  0  0  0
   68.2686   59.2825   20.8734 C   0  0  0  0  0  0  0  0  0  0  0  0
   71.6912   59.3528   15.8604 C   0  0  0  0  0  0  0  0  0  0  0  0
   66.9352   51.3449   13.8315 C   0  0  0  0  0  0  0  0  0  0  0  0
   67.0357   52.6503   13.4230 C   0  0  0  0  0  0  0  0  0  0  0  0
   67.6705   53.6105   14.2141 C   0  0  0  0  0  0  0  0  0  0  0  0
   68.2194   53.2836   15.4368 C   0  0  0  0  0  0  0  0  0  0  0  0
   68.1090   51.9678   15.8318 C   0  0  0  0  0  0  0  0  0  0  0  0
   67.4808   51.0078   15.0514 C   0  0  0  0  0  0  0  0  0  0  0  0
   71.4226   53.8158   15.5339 C   0  0  0  0  0  0  0  0  0  0  0  0
   70.6181   55.9935   14.9498 C   0  0  0  0  0  0  0  0  0  0  0  0
   70.3121   58.4085   21.5050 C   0  0  1  0  0  0  0  0  0  0  0  0
   69.4556   58.5416   20.2842 C   0  0  0  0  0  0  0  0  0  0  0  0
   71.6138   60.3869   16.9273 C   0  0  0  0  0  0  0  0  0  0  0  0
   70.4266   60.9018   17.3300 C   0  0  0  0  0  0  0  0  0  0  0  0
   70.4127   61.8610   18.3223 C   0  0  0  0  0  0  0  0  0  0  0  0
   71.5939   62.2857   18.8912 C   0  0  0  0  0  0  0  0  0  0  0  0
   72.8019   61.7733   18.4931 C   0  0  0  0  0  0  0  0  0  0  0  0
   72.7823   60.8160   17.4999 C   0  0  0  0  0  0  0  0  0  0  0  0
   67.0218   50.1467   11.7142 C   0  0  0  0  0  0  0  0  0  0  0  0
   73.0368   51.7327   15.0703 C   0  0  0  0  0  0  0  0  0  0  0  0
   71.9977   53.7546   14.1783 C   0  0  2  0  0  0  0  0  0  0  0  0
   72.7462   52.5248   13.7912 C   0  0  0  0  0  0  0  0  0  0  0  0
   72.8914   54.9585   13.9428 C   0  0  0  0  0  0  0  0  0  0  0  0
   66.2529   50.3041   12.9890 C   0  0  1  0  0  0  0  0  0  0  0  0
   70.5852   54.9036   15.9021 N   0  0  0  0  0  0  0  0  0  0  0  0
   71.6453   57.6366   17.6371 N   0  0  0  0  0  0  0  0  0  0  0  0
   68.1281   55.6555   16.6017 O   0  0  0  0  0  0  0  0  0  0  0  0
   69.1421   53.8622   17.8232 O   0  0  0  0  0  0  0  0  0  0  0  0
   71.6681   57.8146   14.0505 O   0  0  0  0  0  0  0  0  0  0  0  0
   70.6547   59.1856   18.9762 O   0  0  0  0  0  0  0  0  0  0  0  0
   72.1131   57.8623   20.0435 O   0  0  0  0  0  0  0  0  0  0  0  0
   70.8487   60.6185   21.5450 O   0  0  0  0  0  0  0  0  0  0  0  0
   68.6999   59.9517   21.9854 O   0  0  0  0  0  0  0  0  0  0  0  0
   66.1379   49.0913   13.6277 O   0  0  0  0  0  0  0  0  0  0  0  0
   69.0464   54.4618   16.4526 S   0  0  1  0  0  6  0  0  0  0  0  0
  1  2  1  0
 16  1  1  0
  1 35  1  6
  2  8  1  6
  2 32  1  0
 32  3  1  0
  3 36  2  0
  3 37  1  0
  4  5  1  0
  4 17  1  0
  4 37  1  6
  5 38  1  0
 17  6  1  0
  6 38  1  6
  6 39  1  0
 18  7  1  0
  7 39  1  0
  8 19  1  0
 10  9  2  0
 14  9  1  0
  9 30  1  0
 11 10  1  0
 12 11  2  0
 12 13  1  0
 41 12  1  0
 13 14  2  0
 15 27  1  0
 31 15  1  0
 31 16  1  0
 17 18  1  6
 19 20  2  0
 19 24  1  0
 20 21  1  0
 21 22  2  0
 23 22  1  0
 24 23  2  0
 30 25  1  6
 28 26  1  0
 27 28  1  0
 27 29  1  1
 30 40  1  0
 41 31  1  6
 41 33  2  0
 41 34  2  0
M  END
$$$$
