
     RDKit          3D

 41 44  0  0  0  0  0  0  0  0999 V2000
   71.2786   57.3200   14.9750 C   0  0  1  0  0  0  0  0  0  0  0  0
   70.9484   57.5481   16.4605 C   0  0  2  0  0  0  0  0  0  0  0  0
   72.8202   58.6367   17.8333 C   0  0  0  0  0  0  0  0  0  0  0  0
   74.2747   59.3854   19.5959 C   0  0  1  0  0  0  0  0  0  0  0  0
   75.1625   59.8658   18.5184 C   0  0  0  0  0  0  0  0  0  0  0  0
   75.2143   61.4852   20.0449 C   0  0  1  0  0  0  0  0  0  0  0  0
   73.4337   62.8561   20.2414 C   0  0  0  0  0  0  0  0  0  0  0  0
   69.9431   58.6196   16.5597 C   0  0  0  0  0  0  0  0  0  0  0  0
   67.4178   51.2183   12.9187 C   0  0  0  0  0  0  0  0  0  0  0  0
   68.1670   50.8051   13.9907 C   0  0  0  0  0  0  0  0  0  0  0  0
   68.7312   51.7244   14.8780 C   0  0  0  0  0  0  0  0  0  0  0  0
   68.5581   53.0827   14.7099 C   0  0  0  0  0  0  0  0  0  0  0  0
   67.8031   53.4802   13.6275 C   0  0  0  0  0  0  0  0  0  0  0  0
   67.2385   52.5733   12.7421 C   0  0  0  0  0  0  0  0  0  0  0  0
   71.6804   54.0006   14.8932 C   0  0  0  0  0  0  0  0  0  0  0  0
   70.5961   56.0830   14.4258 C   0  0  0  0  0  0  0  0  0  0  0  0
   74.0297   60.6308   20.4177 C   0  0  1  0  0  0  0  0  0  0  0  0
   72.8916   61.4726   19.9300 C   0  0  0  0  0  0  0  0  0  0  0  0
   69.6223   59.0073   17.9599 C   0  0  0  0  0  0  0  0  0  0  0  0
   69.7330   60.2902   18.3828 C   0  0  0  0  0  0  0  0  0  0  0  0
   69.4249   60.5941   19.6933 C   0  0  0  0  0  0  0  0  0  0  0  0
   69.0116   59.6014   20.5554 C   0  0  0  0  0  0  0  0  0  0  0  0
   68.8954   58.2996   20.1408 C   0  0  0  0  0  0  0  0  0  0  0  0
   69.2100   58.0282   18.8252 C   0  0  0  0  0  0  0  0  0  0  0  0
   65.3887   50.6423   11.7034 C   0  0  0  0  0  0  0  0  0  0  0  0
   73.4539   52.0780   13.9318 C   0  0  0  0  0  0  0  0  0  0  0  0
   72.7900   54.4264   14.0216 C   0  0  2  0  0  0  0  0  0  0  0  0
   73.4316   53.3979   13.1538 C   0  0  0  0  0  0  0  0  0  0  0  0
   73.8680   55.0994   14.8513 C   0  0  0  0  0  0  0  0  0  0  0  0
   66.8076   50.2379   11.9570 C   0  0  1  0  0  0  0  0  0  0  0  0
   70.7045   54.9445   15.3135 N   0  0  0  0  0  0  0  0  0  0  0  0
   72.0579   57.5944   17.3217 N   0  0  0  0  0  0  0  0  0  0  0  0
   68.1759   55.3252   16.0577 O   0  0  0  0  0  0  0  0  0  0  0  0
   69.4125   53.5824   17.1392 O   0  0  0  0  0  0  0  0  0  0  0  0
   70.4931   58.3660   14.3560 O   0  0  0  0  0  0  0  0  0  0  0  0
   73.3281   59.4650   17.0737 O   0  0  0  0  0  0  0  0  0  0  0  0
   73.0641   58.8224   19.2032 O   0  0  0  0  0  0  0  0  0  0  0  0
   75.3938   61.2236   18.6969 O   0  0  0  0  0  0  0  0  0  0  0  0
   74.7984   62.7756   20.2757 O   0  0  0  0  0  0  0  0  0  0  0  0
   67.4975   50.1541   10.7699 O   0  0  0  0  0  0  0  0  0  0  0  0
   69.2358   54.2715   15.8197 S   0  0  1  0  0  6  0  0  0  0  0  0
  1  2  1  0
 16  1  1  0
  1 35  1  6
  2  8  1  6
  2 32  1  0
 32  3  1  0
  3 36  2  0
  3 37  1  0
  4  5  1  0
  4 17  1  0
  4 37  1  6
  5 38  1  0
 17  6  1  0
  6 38  1  6
  6 39  1  0
 18  7  1  0
  7 39  1  0
  8 19  1  0
 10  9  2  0
 14  9  1  0
  9 30  1  0
 11 10  1  0
 12 11  2  0
 12 13  1  0
 41 12  1  0
 13 14  2  0
 15 27  1  0
 31 15  1  0
 31 16  1  0
 17 18  1  6
 19 20  2  0
 19 24  1  0
 20 21  1  0
 21 22  2  0
 23 22  1  0
 24 23  2  0
 30 25  1  6
 28 26  1  0
 27 28  1  0
 27 29  1  1
 30 40  1  0
 41 31  1  6
 41 33  2  0
 41 34  2  0
M  END
$$$$
