
     RDKit          3D

 41 44  0  0  0  0  0  0  0  0999 V2000
   71.3443   57.3867   15.0843 C   0  0  1  0  0  0  0  0  0  0  0  0
   70.9803   57.8104   16.5181 C   0  0  2  0  0  0  0  0  0  0  0  0
   72.7107   58.4558   18.2964 C   0  0  0  0  0  0  0  0  0  0  0  0
   74.7565   59.2594   19.2720 C   0  0  1  0  0  0  0  0  0  0  0  0
   75.6861   60.3077   18.8061 C   0  0  0  0  0  0  0  0  0  0  0  0
   74.5184   61.2824   20.4315 C   0  0  1  0  0  0  0  0  0  0  0  0
   72.3896   61.9062   20.0218 C   0  0  0  0  0  0  0  0  0  0  0  0
   69.5690   58.2301   16.5406 C   0  0  0  0  0  0  0  0  0  0  0  0
   66.8628   51.7030   12.9731 C   0  0  0  0  0  0  0  0  0  0  0  0
   67.6914   51.1481   13.9146 C   0  0  0  0  0  0  0  0  0  0  0  0
   68.4093   51.9456   14.8087 C   0  0  0  0  0  0  0  0  0  0  0  0
   68.3137   53.3215   14.7786 C   0  0  0  0  0  0  0  0  0  0  0  0
   67.4771   53.8621   13.8261 C   0  0  0  0  0  0  0  0  0  0  0  0
   66.7599   53.0767   12.9349 C   0  0  0  0  0  0  0  0  0  0  0  0
   71.4518   54.1287   14.5908 C   0  0  0  0  0  0  0  0  0  0  0  0
   70.4304   56.2936   14.5667 C   0  0  0  0  0  0  0  0  0  0  0  0
   73.7449   60.0360   20.0844 C   0  0  1  0  0  0  0  0  0  0  0  0
   72.6167   60.6017   19.2791 C   0  0  0  0  0  0  0  0  0  0  0  0
   69.1200   58.7383   17.8649 C   0  0  0  0  0  0  0  0  0  0  0  0
   68.6743   57.8996   18.8316 C   0  0  0  0  0  0  0  0  0  0  0  0
   68.2673   58.4250   20.0412 C   0  0  0  0  0  0  0  0  0  0  0  0
   68.3153   59.7854   20.2563 C   0  0  0  0  0  0  0  0  0  0  0  0
   68.7638   60.6454   19.2869 C   0  0  0  0  0  0  0  0  0  0  0  0
   69.1639   60.0893   18.0894 C   0  0  0  0  0  0  0  0  0  0  0  0
   66.2418   49.4194   12.4026 C   0  0  0  0  0  0  0  0  0  0  0  0
   74.9513   53.8154   13.4258 C   0  0  0  0  0  0  0  0  0  0  0  0
   72.9155   54.2644   14.6977 C   0  0  2  0  0  0  0  0  0  0  0  0
   73.7615   53.1692   14.1433 C   0  0  0  0  0  0  0  0  0  0  0  0
   73.3075   54.4920   16.1461 C   0  0  0  0  0  0  0  0  0  0  0  0
   66.0871   50.8543   12.0052 C   0  0  1  0  0  0  0  0  0  0  0  0
   70.6019   55.0413   15.2725 N   0  0  0  0  0  0  0  0  0  0  0  0
   71.9275   58.6248   17.1619 N   0  0  0  0  0  0  0  0  0  0  0  0
   68.2158   55.4107   16.3962 O   0  0  0  0  0  0  0  0  0  0  0  0
   69.5086   53.5233   17.1051 O   0  0  0  0  0  0  0  0  0  0  0  0
   70.8648   58.5261   14.3319 O   0  0  0  0  0  0  0  0  0  0  0  0
   72.1814   58.2420   19.3897 O   0  0  0  0  0  0  0  0  0  0  0  0
   74.1133   58.5133   18.2890 O   0  0  0  0  0  0  0  0  0  0  0  0
   75.2563   61.5375   19.2878 O   0  0  0  0  0  0  0  0  0  0  0  0
   73.5551   62.2380   20.6557 O   0  0  0  0  0  0  0  0  0  0  0  0
   64.7546   51.1910   11.9485 O   0  0  0  0  0  0  0  0  0  0  0  0
   69.1865   54.3594   15.9033 S   0  0  1  0  0  6  0  0  0  0  0  0
  1  2  1  0
 16  1  1  0
  1 35  1  6
  2  8  1  6
  2 32  1  0
 32  3  1  0
  3 36  2  0
  3 37  1  0
  4  5  1  0
  4 17  1  0
  4 37  1  6
  5 38  1  0
 17  6  1  0
  6 38  1  6
  6 39  1  0
 18  7  1  0
  7 39  1  0
  8 19  1  0
 10  9  2  0
 14  9  1  0
  9 30  1  0
 11 10  1  0
 12 11  2  0
 12 13  1  0
 41 12  1  0
 13 14  2  0
 15 27  1  0
 31 15  1  0
 31 16  1  0
 17 18  1  6
 19 20  2  0
 19 24  1  0
 20 21  1  0
 21 22  2  0
 23 22  1  0
 24 23  2  0
 30 25  1  1
 28 26  1  0
 27 28  1  0
 27 29  1  1
 30 40  1  0
 41 31  1  6
 41 33  2  0
 41 34  2  0
M  END
$$$$
