
     RDKit          3D

 41 44  0  0  0  0  0  0  0  0999 V2000
   70.8235   56.7336   16.3473 C   0  0  1  0  0  0  0  0  0  0  0  0
   70.8709   57.6727   17.5653 C   0  0  2  0  0  0  0  0  0  0  0  0
   73.0158   58.7205   18.5007 C   0  0  0  0  0  0  0  0  0  0  0  0
   74.8868   60.0732   19.1733 C   0  0  1  0  0  0  0  0  0  0  0  0
   75.5984   61.2974   18.7550 C   0  0  0  0  0  0  0  0  0  0  0  0
   74.5467   61.8783   20.6290 C   0  0  1  0  0  0  0  0  0  0  0  0
   72.3186   62.2256   20.5664 C   0  0  0  0  0  0  0  0  0  0  0  0
   69.5250   58.2293   17.7828 C   0  0  0  0  0  0  0  0  0  0  0  0
   66.9023   51.1326   12.5686 C   0  0  0  0  0  0  0  0  0  0  0  0
   67.2373   51.1341   13.8986 C   0  0  0  0  0  0  0  0  0  0  0  0
   67.8246   52.2512   14.4969 C   0  0  0  0  0  0  0  0  0  0  0  0
   68.0917   53.3951   13.7734 C   0  0  0  0  0  0  0  0  0  0  0  0
   67.7492   53.3760   12.4385 C   0  0  0  0  0  0  0  0  0  0  0  0
   67.1646   52.2707   11.8370 C   0  0  0  0  0  0  0  0  0  0  0  0
   71.3521   54.2898   14.8979 C   0  0  0  0  0  0  0  0  0  0  0  0
   70.2091   55.3908   16.6901 C   0  0  0  0  0  0  0  0  0  0  0  0
   73.9030   60.5840   20.2017 C   0  0  1  0  0  0  0  0  0  0  0  0
   72.6108   61.0718   19.6239 C   0  0  0  0  0  0  0  0  0  0  0  0
   69.3607   58.8907   19.1054 C   0  0  0  0  0  0  0  0  0  0  0  0
   69.3760   58.1803   20.2594 C   0  0  0  0  0  0  0  0  0  0  0  0
   69.2164   58.8442   21.4588 C   0  0  0  0  0  0  0  0  0  0  0  0
   69.0433   60.2114   21.4755 C   0  0  0  0  0  0  0  0  0  0  0  0
   69.0256   60.9423   20.3155 C   0  0  0  0  0  0  0  0  0  0  0  0
   69.1882   60.2497   19.1334 C   0  0  0  0  0  0  0  0  0  0  0  0
   65.9144   48.9460   12.9795 C   0  0  0  0  0  0  0  0  0  0  0  0
   72.4005   54.0785   17.7864 C   0  0  0  0  0  0  0  0  0  0  0  0
   72.3114   53.3253   15.4651 C   0  0  2  0  0  0  0  0  0  0  0  0
   73.2363   53.8043   16.5317 C   0  0  0  0  0  0  0  0  0  0  0  0
   73.1365   52.7045   14.3528 C   0  0  0  0  0  0  0  0  0  0  0  0
   66.2715   49.9356   11.9145 C   0  0  1  0  0  0  0  0  0  0  0  0
   70.1054   54.5146   15.5423 N   0  0  0  0  0  0  0  0  0  0  0  0
   71.9683   58.5496   17.6046 N   0  0  0  0  0  0  0  0  0  0  0  0
   69.2022   55.7603   13.3686 O   0  0  0  0  0  0  0  0  0  0  0  0
   67.7162   55.5413   15.2341 O   0  0  0  0  0  0  0  0  0  0  0  0
   69.7565   57.3366   15.5778 O   0  0  0  0  0  0  0  0  0  0  0  0
   72.9216   58.2941   19.6540 O   0  0  0  0  0  0  0  0  0  0  0  0
   74.2185   59.3680   18.1769 O   0  0  0  0  0  0  0  0  0  0  0  0
   75.0811   62.3803   19.4543 O   0  0  0  0  0  0  0  0  0  0  0  0
   73.5062   62.6452   21.0990 O   0  0  0  0  0  0  0  0  0  0  0  0
   65.1592   50.2570   11.1718 O   0  0  0  0  0  0  0  0  0  0  0  0
   68.8115   54.8309   14.4974 S   0  0  1  0  0  6  0  0  0  0  0  0
  1  2  1  0
 16  1  1  0
  1 35  1  6
  2  8  1  6
  2 32  1  0
 32  3  1  0
  3 36  2  0
  3 37  1  0
  4  5  1  0
  4 17  1  0
  4 37  1  6
  5 38  1  0
 17  6  1  0
  6 38  1  6
  6 39  1  0
 18  7  1  0
  7 39  1  0
  8 19  1  0
 10  9  2  0
 14  9  1  0
  9 30  1  0
 11 10  1  0
 12 11  2  0
 12 13  1  0
 41 12  1  0
 13 14  2  0
 15 27  1  0
 31 15  1  0
 31 16  1  0
 17 18  1  6
 19 20  2  0
 19 24  1  0
 20 21  1  0
 21 22  2  0
 23 22  1  0
 24 23  2  0
 30 25  1  1
 28 26  1  0
 27 28  1  0
 27 29  1  6
 30 40  1  0
 41 31  1  1
 41 33  2  0
 41 34  2  0
M  END
$$$$
