
     RDKit          3D

 41 44  0  0  0  0  0  0  0  0999 V2000
   71.1169   57.3373   15.3750 C   0  0  1  0  0  0  0  0  0  0  0  0
   70.7477   58.0126   16.7075 C   0  0  2  0  0  0  0  0  0  0  0  0
   72.8830   58.7945   17.8917 C   0  0  0  0  0  0  0  0  0  0  0  0
   74.6063   60.0487   19.0054 C   0  0  1  0  0  0  0  0  0  0  0  0
   75.7489   60.9753   18.8795 C   0  0  0  0  0  0  0  0  0  0  0  0
   74.6308   61.7099   20.6587 C   0  0  1  0  0  0  0  0  0  0  0  0
   72.6968   62.8284   20.3461 C   0  0  0  0  0  0  0  0  0  0  0  0
   69.3346   58.4231   16.6511 C   0  0  0  0  0  0  0  0  0  0  0  0
   66.7486   51.2431   13.5330 C   0  0  0  0  0  0  0  0  0  0  0  0
   67.7456   50.7950   14.3614 C   0  0  0  0  0  0  0  0  0  0  0  0
   68.4764   51.6780   15.1594 C   0  0  0  0  0  0  0  0  0  0  0  0
   68.2248   53.0343   15.1444 C   0  0  0  0  0  0  0  0  0  0  0  0
   67.2201   53.4673   14.3062 C   0  0  0  0  0  0  0  0  0  0  0  0
   66.4889   52.5964   13.5110 C   0  0  0  0  0  0  0  0  0  0  0  0
   71.0272   54.2262   14.3546 C   0  0  0  0  0  0  0  0  0  0  0  0
   70.0641   56.3399   14.9339 C   0  0  0  0  0  0  0  0  0  0  0  0
   73.6806   60.7746   19.9555 C   0  0  1  0  0  0  0  0  0  0  0  0
   72.7525   61.7413   19.2877 C   0  0  0  0  0  0  0  0  0  0  0  0
   68.8233   58.9756   17.9345 C   0  0  0  0  0  0  0  0  0  0  0  0
   68.2417   58.1814   18.8659 C   0  0  0  0  0  0  0  0  0  0  0  0
   67.7824   58.7468   20.0382 C   0  0  0  0  0  0  0  0  0  0  0  0
   67.9159   60.1017   20.2520 C   0  0  0  0  0  0  0  0  0  0  0  0
   68.5021   60.9168   19.3181 C   0  0  0  0  0  0  0  0  0  0  0  0
   68.9513   60.3215   18.1573 C   0  0  0  0  0  0  0  0  0  0  0  0
   65.2666   51.0998   11.6071 C   0  0  0  0  0  0  0  0  0  0  0  0
   72.7350   51.9687   13.5861 C   0  0  0  0  0  0  0  0  0  0  0  0
   72.4909   54.3176   14.2078 C   0  0  2  0  0  0  0  0  0  0  0  0
   73.1549   53.4006   13.2379 C   0  0  0  0  0  0  0  0  0  0  0  0
   73.1558   54.1526   15.5621 C   0  0  0  0  0  0  0  0  0  0  0  0
   65.9572   50.3019   12.6690 C   0  0  1  0  0  0  0  0  0  0  0  0
   70.3644   54.9877   15.3550 N   0  0  0  0  0  0  0  0  0  0  0  0
   71.6899   58.9345   17.1944 N   0  0  0  0  0  0  0  0  0  0  0  0
   68.1002   55.1316   16.7498 O   0  0  0  0  0  0  0  0  0  0  0  0
   69.6554   53.3994   17.3127 O   0  0  0  0  0  0  0  0  0  0  0  0
   70.8785   58.4195   14.4443 O   0  0  0  0  0  0  0  0  0  0  0  0
   73.0677   57.8126   18.6147 O   0  0  0  0  0  0  0  0  0  0  0  0
   73.9329   59.7244   17.8314 O   0  0  0  0  0  0  0  0  0  0  0  0
   75.5053   62.0993   19.6582 O   0  0  0  0  0  0  0  0  0  0  0  0
   73.8392   62.7472   21.0935 O   0  0  0  0  0  0  0  0  0  0  0  0
   66.7336   49.3210   12.0972 O   0  0  0  0  0  0  0  0  0  0  0  0
   69.1105   54.1763   16.1522 S   0  0  1  0  0  6  0  0  0  0  0  0
  1  2  1  0
 16  1  1  0
  1 35  1  6
  2  8  1  6
  2 32  1  0
 32  3  1  0
  3 36  2  0
  3 37  1  0
  4  5  1  0
  4 17  1  0
  4 37  1  6
  5 38  1  0
 17  6  1  0
  6 38  1  6
  6 39  1  0
 18  7  1  0
  7 39  1  0
  8 19  1  0
 10  9  2  0
 14  9  1  0
  9 30  1  0
 11 10  1  0
 12 11  2  0
 12 13  1  0
 41 12  1  0
 13 14  2  0
 15 27  1  0
 31 15  1  0
 31 16  1  0
 17 18  1  6
 19 20  2  0
 19 24  1  0
 20 21  1  0
 21 22  2  0
 23 22  1  0
 24 23  2  0
 30 25  1  6
 28 26  1  0
 27 28  1  0
 27 29  1  1
 30 40  1  0
 41 31  1  6
 41 33  2  0
 41 34  2  0
M  END
$$$$
