
     RDKit          3D

 41 44  0  0  0  0  0  0  0  0999 V2000
   71.0711   56.8411   15.7741 C   0  0  1  0  0  0  0  0  0  0  0  0
   70.8074   57.7079   17.0179 C   0  0  2  0  0  0  0  0  0  0  0  0
   73.1274   58.4440   17.8237 C   0  0  0  0  0  0  0  0  0  0  0  0
   74.7611   59.8781   18.8520 C   0  0  1  0  0  0  0  0  0  0  0  0
   75.8236   60.8867   18.6682 C   0  0  0  0  0  0  0  0  0  0  0  0
   74.6253   61.6476   20.3829 C   0  0  1  0  0  0  0  0  0  0  0  0
   72.6086   62.5740   19.9784 C   0  0  0  0  0  0  0  0  0  0  0  0
   69.4262   58.2144   16.9541 C   0  0  0  0  0  0  0  0  0  0  0  0
   66.9499   51.3953   13.5501 C   0  0  0  0  0  0  0  0  0  0  0  0
   66.7583   52.7209   13.2549 C   0  0  0  0  0  0  0  0  0  0  0  0
   67.4565   53.7227   13.9329 C   0  0  0  0  0  0  0  0  0  0  0  0
   68.3643   53.4179   14.9260 C   0  0  0  0  0  0  0  0  0  0  0  0
   68.5440   52.0813   15.2100 C   0  0  0  0  0  0  0  0  0  0  0  0
   67.8550   51.0802   14.5405 C   0  0  0  0  0  0  0  0  0  0  0  0
   71.4578   53.5896   14.7720 C   0  0  0  0  0  0  0  0  0  0  0  0
   71.7638   55.5397   16.1263 C   0  0  0  0  0  0  0  0  0  0  0  0
   73.7658   60.5882   19.7417 C   0  0  1  0  0  0  0  0  0  0  0  0
   72.7687   61.4238   19.0005 C   0  0  0  0  0  0  0  0  0  0  0  0
   69.0023   58.9443   18.1794 C   0  0  0  0  0  0  0  0  0  0  0  0
   68.6073   58.2851   19.2957 C   0  0  0  0  0  0  0  0  0  0  0  0
   68.2217   59.0121   20.4037 C   0  0  0  0  0  0  0  0  0  0  0  0
   68.2398   60.3897   20.3684 C   0  0  0  0  0  0  0  0  0  0  0  0
   68.6369   61.0692   19.2457 C   0  0  0  0  0  0  0  0  0  0  0  0
   69.0169   60.3142   18.1552 C   0  0  0  0  0  0  0  0  0  0  0  0
   64.7441   50.6455   12.8444 C   0  0  0  0  0  0  0  0  0  0  0  0
   74.1276   54.4929   12.9684 C   0  0  0  0  0  0  0  0  0  0  0  0
   72.8987   53.2876   14.7005 C   0  0  2  0  0  0  0  0  0  0  0  0
   73.8400   54.4207   14.4717 C   0  0  0  0  0  0  0  0  0  0  0  0
   73.1513   52.2282   13.6435 C   0  0  0  0  0  0  0  0  0  0  0  0
   66.2028   50.3094   12.8280 C   0  0  1  0  0  0  0  0  0  0  0  0
   70.9492   54.3778   15.8397 N   0  0  0  0  0  0  0  0  0  0  0  0
   71.8327   58.6102   17.3489 N   0  0  0  0  0  0  0  0  0  0  0  0
   68.9383   55.9880   15.1640 O   0  0  0  0  0  0  0  0  0  0  0  0
   68.7240   54.7118   17.1793 O   0  0  0  0  0  0  0  0  0  0  0  0
   69.7345   56.3711   15.4796 O   0  0  0  0  0  0  0  0  0  0  0  0
   73.4504   57.3982   18.3920 O   0  0  0  0  0  0  0  0  0  0  0  0
   74.1322   59.4164   17.6995 O   0  0  0  0  0  0  0  0  0  0  0  0
   75.4769   62.0381   19.3632 O   0  0  0  0  0  0  0  0  0  0  0  0
   73.7442   62.6423   20.7374 O   0  0  0  0  0  0  0  0  0  0  0  0
   66.6355   50.1327   11.5344 O   0  0  0  0  0  0  0  0  0  0  0  0
   69.2793   54.6521   15.7882 S   0  0  1  0  0  6  0  0  0  0  0  0
  1  2  1  0
 16  1  1  0
  1 35  1  1
  2  8  1  6
  2 32  1  0
 32  3  1  0
  3 36  2  0
  3 37  1  0
  4  5  1  0
  4 17  1  0
  4 37  1  6
  5 38  1  0
 17  6  1  0
  6 38  1  6
  6 39  1  0
 18  7  1  0
  7 39  1  0
  8 19  1  0
 10  9  2  0
 14  9  1  0
  9 30  1  0
 11 10  1  0
 12 11  2  0
 12 13  1  0
 41 12  1  0
 13 14  2  0
 15 27  1  0
 31 15  1  0
 31 16  1  0
 17 18  1  6
 19 20  2  0
 19 24  1  0
 20 21  1  0
 21 22  2  0
 23 22  1  0
 24 23  2  0
 30 25  1  6
 28 26  1  0
 27 28  1  0
 27 29  1  6
 30 40  1  0
 41 31  1  1
 41 33  2  0
 41 34  2  0
M  END
$$$$
