
     RDKit          3D

 41 44  0  0  0  0  0  0  0  0999 V2000
   71.0307   57.2009   15.4058 C   0  0  1  0  0  0  0  0  0  0  0  0
   70.7233   57.7113   16.8245 C   0  0  2  0  0  0  0  0  0  0  0  0
   72.5968   58.5500   18.3606 C   0  0  0  0  0  0  0  0  0  0  0  0
   74.7361   59.3670   19.0947 C   0  0  1  0  0  0  0  0  0  0  0  0
   75.7436   60.2660   18.4974 C   0  0  0  0  0  0  0  0  0  0  0  0
   74.7293   61.5128   20.0374 C   0  0  1  0  0  0  0  0  0  0  0  0
   72.6558   62.2947   19.6152 C   0  0  0  0  0  0  0  0  0  0  0  0
   70.0135   58.9972   16.7182 C   0  0  0  0  0  0  0  0  0  0  0  0
   67.0172   51.7441   13.7187 C   0  0  0  0  0  0  0  0  0  0  0  0
   67.8607   51.3061   14.7075 C   0  0  0  0  0  0  0  0  0  0  0  0
   68.7125   52.1877   15.3767 C   0  0  0  0  0  0  0  0  0  0  0  0
   68.7395   53.5320   15.0684 C   0  0  0  0  0  0  0  0  0  0  0  0
   67.8861   53.9548   14.0721 C   0  0  0  0  0  0  0  0  0  0  0  0
   67.0361   53.0855   13.4032 C   0  0  0  0  0  0  0  0  0  0  0  0
   71.5426   54.1607   14.0210 C   0  0  0  0  0  0  0  0  0  0  0  0
   72.0128   56.0462   15.4189 C   0  0  0  0  0  0  0  0  0  0  0  0
   73.8305   60.3183   19.8440 C   0  0  1  0  0  0  0  0  0  0  0  0
   72.7335   60.9043   19.0104 C   0  0  0  0  0  0  0  0  0  0  0  0
   69.4279   59.4623   18.0044 C   0  0  0  0  0  0  0  0  0  0  0  0
   68.8992   60.7034   18.1344 C   0  0  0  0  0  0  0  0  0  0  0  0
   68.3712   61.0843   19.3513 C   0  0  0  0  0  0  0  0  0  0  0  0
   68.3854   60.2096   20.4163 C   0  0  0  0  0  0  0  0  0  0  0  0
   68.9172   58.9512   20.2987 C   0  0  0  0  0  0  0  0  0  0  0  0
   69.4365   58.6004   19.0696 C   0  0  0  0  0  0  0  0  0  0  0  0
   64.9895   51.6028   12.3791 C   0  0  0  0  0  0  0  0  0  0  0  0
   73.1604   51.6552   14.0241 C   0  0  0  0  0  0  0  0  0  0  0  0
   72.8976   54.0164   13.4593 C   0  0  2  0  0  0  0  0  0  0  0  0
   73.2852   52.6897   12.9007 C   0  0  0  0  0  0  0  0  0  0  0  0
   73.9303   54.4260   14.4932 C   0  0  0  0  0  0  0  0  0  0  0  0
   66.0978   50.8039   12.9911 C   0  0  1  0  0  0  0  0  0  0  0  0
   71.3627   54.7584   15.2979 N   0  0  0  0  0  0  0  0  0  0  0  0
   71.7832   57.6098   17.7416 N   0  0  0  0  0  0  0  0  0  0  0  0
   69.0926   56.0239   15.8791 O   0  0  0  0  0  0  0  0  0  0  0  0
   69.8070   54.2718   17.3475 O   0  0  0  0  0  0  0  0  0  0  0  0
   69.7984   56.5110   15.0899 O   0  0  0  0  0  0  0  0  0  0  0  0
   72.1031   59.4151   19.0878 O   0  0  0  0  0  0  0  0  0  0  0  0
   73.9922   58.5889   18.2127 O   0  0  0  0  0  0  0  0  0  0  0  0
   75.4482   61.5750   18.8556 O   0  0  0  0  0  0  0  0  0  0  0  0
   73.8684   62.5757   20.1817 O   0  0  0  0  0  0  0  0  0  0  0  0
   66.7426   50.0673   12.0249 O   0  0  0  0  0  0  0  0  0  0  0  0
   69.7842   54.6780   15.9047 S   0  0  1  0  0  6  0  0  0  0  0  0
  1  2  1  0
 16  1  1  0
  1 35  1  1
  2  8  1  6
  2 32  1  0
 32  3  1  0
  3 36  2  0
  3 37  1  0
  4  5  1  0
  4 17  1  0
  4 37  1  6
  5 38  1  0
 17  6  1  0
  6 38  1  6
  6 39  1  0
 18  7  1  0
  7 39  1  0
  8 19  1  0
 10  9  2  0
 14  9  1  0
  9 30  1  0
 11 10  1  0
 12 11  2  0
 12 13  1  0
 41 12  1  0
 13 14  2  0
 15 27  1  0
 31 15  1  0
 31 16  1  0
 17 18  1  6
 19 20  2  0
 19 24  1  0
 20 21  1  0
 21 22  2  0
 23 22  1  0
 24 23  2  0
 30 25  1  6
 28 26  1  0
 27 28  1  0
 27 29  1  1
 30 40  1  0
 41 31  1  6
 41 33  2  0
 41 34  2  0
M  END
$$$$
