
     RDKit          3D

 41 44  0  0  0  0  0  0  0  0999 V2000
   70.2772   57.4590   15.2041 C   0  0  1  0  0  0  0  0  0  0  0  0
   70.4621   57.8677   16.6760 C   0  0  2  0  0  0  0  0  0  0  0  0
   72.5337   58.5670   18.0149 C   0  0  0  0  0  0  0  0  0  0  0  0
   74.5887   59.2878   19.0348 C   0  0  1  0  0  0  0  0  0  0  0  0
   75.5807   60.2783   18.5711 C   0  0  0  0  0  0  0  0  0  0  0  0
   74.4182   61.3480   20.1394 C   0  0  1  0  0  0  0  0  0  0  0  0
   72.3343   62.0632   19.6549 C   0  0  0  0  0  0  0  0  0  0  0  0
   69.7187   59.1163   16.9144 C   0  0  0  0  0  0  0  0  0  0  0  0
   67.2821   51.5983   13.4621 C   0  0  0  0  0  0  0  0  0  0  0  0
   68.2006   51.2513   14.4198 C   0  0  0  0  0  0  0  0  0  0  0  0
   68.8201   52.2187   15.2142 C   0  0  0  0  0  0  0  0  0  0  0  0
   68.5333   53.5599   15.0656 C   0  0  0  0  0  0  0  0  0  0  0  0
   67.6088   53.8907   14.0985 C   0  0  0  0  0  0  0  0  0  0  0  0
   66.9883   52.9357   13.3060 C   0  0  0  0  0  0  0  0  0  0  0  0
   71.6611   53.9807   15.3244 C   0  0  0  0  0  0  0  0  0  0  0  0
   71.1339   56.2640   14.8354 C   0  0  0  0  0  0  0  0  0  0  0  0
   73.5945   60.1320   19.7998 C   0  0  1  0  0  0  0  0  0  0  0  0
   72.5175   60.7313   18.9496 C   0  0  0  0  0  0  0  0  0  0  0  0
   69.2863   59.2914   18.3272 C   0  0  0  0  0  0  0  0  0  0  0  0
   68.7199   60.4453   18.7569 C   0  0  0  0  0  0  0  0  0  0  0  0
   68.3395   60.5549   20.0791 C   0  0  0  0  0  0  0  0  0  0  0  0
   68.5367   59.5017   20.9457 C   0  0  0  0  0  0  0  0  0  0  0  0
   69.1088   58.3288   20.5245 C   0  0  0  0  0  0  0  0  0  0  0  0
   69.4774   58.2503   19.1973 C   0  0  0  0  0  0  0  0  0  0  0  0
   66.6594   51.0300   11.1784 C   0  0  0  0  0  0  0  0  0  0  0  0
   73.2883   51.7193   15.0645 C   0  0  0  0  0  0  0  0  0  0  0  0
   73.0497   54.1408   14.8570 C   0  0  2  0  0  0  0  0  0  0  0  0
   73.7310   52.9521   14.2694 C   0  0  0  0  0  0  0  0  0  0  0  0
   73.9121   54.6858   15.9807 C   0  0  0  0  0  0  0  0  0  0  0  0
   66.6109   50.5658   12.6008 C   0  0  1  0  0  0  0  0  0  0  0  0
   70.8999   55.1225   15.6944 N   0  0  0  0  0  0  0  0  0  0  0  0
   71.7760   57.7714   17.1651 N   0  0  0  0  0  0  0  0  0  0  0  0
   68.4159   56.0463   15.9572 O   0  0  0  0  0  0  0  0  0  0  0  0
   69.1513   54.3569   17.4872 O   0  0  0  0  0  0  0  0  0  0  0  0
   68.9640   56.8527   15.2511 O   0  0  0  0  0  0  0  0  0  0  0  0
   71.9794   59.3454   18.7947 O   0  0  0  0  0  0  0  0  0  0  0  0
   73.9369   58.5494   18.0517 O   0  0  0  0  0  0  0  0  0  0  0  0
   75.1984   61.5388   19.0115 O   0  0  0  0  0  0  0  0  0  0  0  0
   73.4968   62.3541   20.3136 O   0  0  0  0  0  0  0  0  0  0  0  0
   67.1844   49.3207   12.7144 O   0  0  0  0  0  0  0  0  0  0  0  0
   69.2779   54.8069   16.0629 S   0  0  1  0  0  6  0  0  0  0  0  0
  1  2  1  0
 16  1  1  0
  1 35  1  1
  2  8  1  6
  2 32  1  0
 32  3  1  0
  3 36  2  0
  3 37  1  0
  4  5  1  0
  4 17  1  0
  4 37  1  6
  5 38  1  0
 17  6  1  0
  6 38  1  6
  6 39  1  0
 18  7  1  0
  7 39  1  0
  8 19  1  0
 10  9  2  0
 14  9  1  0
  9 30  1  0
 11 10  1  0
 12 11  2  0
 12 13  1  0
 41 12  1  0
 13 14  2  0
 15 27  1  0
 31 15  1  0
 31 16  1  0
 17 18  1  6
 19 20  2  0
 19 24  1  0
 20 21  1  0
 21 22  2  0
 23 22  1  0
 24 23  2  0
 30 25  1  6
 28 26  1  0
 27 28  1  0
 27 29  1  1
 30 40  1  0
 41 31  1  6
 41 33  2  0
 41 34  2  0
M  END
$$$$
