
     RDKit          3D

 41 44  0  0  0  0  0  0  0  0999 V2000
   70.9266   57.0483   15.2263 C   0  0  1  0  0  0  0  0  0  0  0  0
   70.8506   57.7692   16.5837 C   0  0  2  0  0  0  0  0  0  0  0  0
   72.6909   58.1314   18.3316 C   0  0  0  0  0  0  0  0  0  0  0  0
   74.7549   59.1180   19.0729 C   0  0  1  0  0  0  0  0  0  0  0  0
   75.3551   60.0874   18.1348 C   0  0  0  0  0  0  0  0  0  0  0  0
   74.3758   61.3481   19.6862 C   0  0  1  0  0  0  0  0  0  0  0  0
   72.1292   61.5513   19.6678 C   0  0  0  0  0  0  0  0  0  0  0  0
   69.7134   58.7043   16.5565 C   0  0  0  0  0  0  0  0  0  0  0  0
   67.1681   51.7306   13.1800 C   0  0  0  0  0  0  0  0  0  0  0  0
   67.0185   53.0889   13.0633 C   0  0  0  0  0  0  0  0  0  0  0  0
   67.7786   53.9707   13.8349 C   0  0  0  0  0  0  0  0  0  0  0  0
   68.7077   53.5098   14.7446 C   0  0  0  0  0  0  0  0  0  0  0  0
   68.8446   52.1424   14.8492 C   0  0  0  0  0  0  0  0  0  0  0  0
   68.0940   51.2598   14.0857 C   0  0  0  0  0  0  0  0  0  0  0  0
   71.6764   53.7965   14.1801 C   0  0  0  0  0  0  0  0  0  0  0  0
   71.9477   55.9280   15.2356 C   0  0  0  0  0  0  0  0  0  0  0  0
   73.7992   59.9687   19.8787 C   0  0  1  0  0  0  0  0  0  0  0  0
   72.4453   60.1239   19.2587 C   0  0  0  0  0  0  0  0  0  0  0  0
   69.2521   59.1203   17.9085 C   0  0  0  0  0  0  0  0  0  0  0  0
   68.8710   58.2106   18.8380 C   0  0  0  0  0  0  0  0  0  0  0  0
   68.4491   58.6517   20.0758 C   0  0  0  0  0  0  0  0  0  0  0  0
   68.4173   60.0008   20.3561 C   0  0  0  0  0  0  0  0  0  0  0  0
   68.7998   60.9318   19.4250 C   0  0  0  0  0  0  0  0  0  0  0  0
   69.2170   60.4592   18.1978 C   0  0  0  0  0  0  0  0  0  0  0  0
   65.3813   50.0790   13.2576 C   0  0  0  0  0  0  0  0  0  0  0  0
   72.8122   51.4575   12.7559 C   0  0  0  0  0  0  0  0  0  0  0  0
   73.0840   53.6654   13.7636 C   0  0  2  0  0  0  0  0  0  0  0  0
   73.6718   52.2965   13.7074 C   0  0  0  0  0  0  0  0  0  0  0  0
   73.9647   54.5339   14.6430 C   0  0  0  0  0  0  0  0  0  0  0  0
   66.3543   50.7728   12.3559 C   0  0  1  0  0  0  0  0  0  0  0  0
   71.3374   54.6164   15.2906 N   0  0  0  0  0  0  0  0  0  0  0  0
   72.0788   58.2290   17.0886 N   0  0  0  0  0  0  0  0  0  0  0  0
   69.0704   55.9656   15.6551 O   0  0  0  0  0  0  0  0  0  0  0  0
   69.5477   54.1523   17.1452 O   0  0  0  0  0  0  0  0  0  0  0  0
   69.6910   56.2953   15.2465 O   0  0  0  0  0  0  0  0  0  0  0  0
   72.0099   58.1226   19.3598 O   0  0  0  0  0  0  0  0  0  0  0  0
   74.0804   58.0391   18.5092 O   0  0  0  0  0  0  0  0  0  0  0  0
   74.8058   61.3412   18.3700 O   0  0  0  0  0  0  0  0  0  0  0  0
   73.3139   62.1993   19.8845 O   0  0  0  0  0  0  0  0  0  0  0  0
   65.6882   51.3897   11.3225 O   0  0  0  0  0  0  0  0  0  0  0  0
   69.6999   54.5908   15.7198 S   0  0  1  0  0  6  0  0  0  0  0  0
  1  2  1  0
 16  1  1  0
  1 35  1  1
  2  8  1  6
  2 32  1  0
 32  3  1  0
  3 36  2  0
  3 37  1  0
  4  5  1  0
  4 17  1  0
  4 37  1  6
  5 38  1  0
 17  6  1  0
  6 38  1  6
  6 39  1  0
 18  7  1  0
  7 39  1  0
  8 19  1  0
 10  9  2  0
 14  9  1  0
  9 30  1  0
 11 10  1  0
 12 11  2  0
 12 13  1  0
 41 12  1  0
 13 14  2  0
 15 27  1  0
 31 15  1  0
 31 16  1  0
 17 18  1  6
 19 20  2  0
 19 24  1  0
 20 21  1  0
 21 22  2  0
 23 22  1  0
 24 23  2  0
 30 25  1  1
 28 26  1  0
 27 28  1  0
 27 29  1  1
 30 40  1  0
 41 31  1  6
 41 33  2  0
 41 34  2  0
M  END
$$$$
