
     RDKit          3D

 41 44  0  0  0  0  0  0  0  0999 V2000
   70.6231   57.4508   14.7618 C   0  0  1  0  0  0  0  0  0  0  0  0
   70.5903   57.8004   16.2599 C   0  0  2  0  0  0  0  0  0  0  0  0
   72.2401   58.1136   18.1972 C   0  0  0  0  0  0  0  0  0  0  0  0
   74.3633   59.2365   18.3177 C   0  0  1  0  0  0  0  0  0  0  0  0
   73.8833   60.1128   17.2306 C   0  0  0  0  0  0  0  0  0  0  0  0
   74.5151   61.5166   18.8386 C   0  0  1  0  0  0  0  0  0  0  0  0
   73.2001   61.7564   20.6558 C   0  0  0  0  0  0  0  0  0  0  0  0
   69.6591   58.9234   16.4606 C   0  0  0  0  0  0  0  0  0  0  0  0
   67.2114   51.6697   13.2474 C   0  0  0  0  0  0  0  0  0  0  0  0
   67.9480   51.3379   14.3558 C   0  0  0  0  0  0  0  0  0  0  0  0
   68.5672   52.3181   15.1346 C   0  0  0  0  0  0  0  0  0  0  0  0
   68.4631   53.6569   14.8186 C   0  0  0  0  0  0  0  0  0  0  0  0
   67.7199   53.9723   13.7017 C   0  0  0  0  0  0  0  0  0  0  0  0
   67.1009   53.0046   12.9233 C   0  0  0  0  0  0  0  0  0  0  0  0
   71.6073   53.9052   15.4243 C   0  0  0  0  0  0  0  0  0  0  0  0
   71.2340   56.0864   14.5111 C   0  0  0  0  0  0  0  0  0  0  0  0
   74.4235   60.1685   19.5069 C   0  0  1  0  0  0  0  0  0  0  0  0
   73.1315   60.2942   20.2528 C   0  0  0  0  0  0  0  0  0  0  0  0
   69.3503   59.1928   17.8909 C   0  0  0  0  0  0  0  0  0  0  0  0
   68.5805   58.3490   18.6204 C   0  0  0  0  0  0  0  0  0  0  0  0
   68.3234   58.6486   19.9429 C   0  0  0  0  0  0  0  0  0  0  0  0
   68.8449   59.7925   20.5076 C   0  0  0  0  0  0  0  0  0  0  0  0
   69.6250   60.6548   19.7810 C   0  0  0  0  0  0  0  0  0  0  0  0
   69.8641   60.3272   18.4623 C   0  0  0  0  0  0  0  0  0  0  0  0
   65.9920   51.2838   11.1762 C   0  0  0  0  0  0  0  0  0  0  0  0
   74.8996   53.9006   13.4749 C   0  0  0  0  0  0  0  0  0  0  0  0
   73.0320   53.9359   15.0479 C   0  0  2  0  0  0  0  0  0  0  0  0
   73.3774   53.7835   13.6057 C   0  0  0  0  0  0  0  0  0  0  0  0
   73.7971   52.8925   15.8411 C   0  0  0  0  0  0  0  0  0  0  0  0
   66.5424   50.6230   12.4015 C   0  0  1  0  0  0  0  0  0  0  0  0
   70.8726   55.1177   15.5245 N   0  0  0  0  0  0  0  0  0  0  0  0
   71.8446   57.8548   16.8911 N   0  0  0  0  0  0  0  0  0  0  0  0
   68.4396   56.2007   15.5396 O   0  0  0  0  0  0  0  0  0  0  0  0
   68.9552   54.5788   17.2247 O   0  0  0  0  0  0  0  0  0  0  0  0
   69.2241   57.1763   14.5138 O   0  0  0  0  0  0  0  0  0  0  0  0
   71.3970   58.3510   19.0654 O   0  0  0  0  0  0  0  0  0  0  0  0
   73.5798   58.1257   18.6164 O   0  0  0  0  0  0  0  0  0  0  0  0
   73.6863   61.3913   17.7364 O   0  0  0  0  0  0  0  0  0  0  0  0
   74.0179   62.3997   19.7684 O   0  0  0  0  0  0  0  0  0  0  0  0
   67.3903   49.5989   12.0491 O   0  0  0  0  0  0  0  0  0  0  0  0
   69.2117   54.9231   15.7885 S   0  0  1  0  0  6  0  0  0  0  0  0
  1  2  1  0
 16  1  1  0
  1 35  1  1
  2  8  1  6
  2 32  1  0
 32  3  1  0
  3 36  2  0
  3 37  1  0
  4  5  1  0
  4 17  1  0
  4 37  1  1
  5 38  1  0
 17  6  1  0
  6 38  1  6
  6 39  1  0
 18  7  1  0
  7 39  1  0
  8 19  1  0
 10  9  2  0
 14  9  1  0
  9 30  1  0
 11 10  1  0
 12 11  2  0
 12 13  1  0
 41 12  1  0
 13 14  2  0
 15 27  1  0
 31 15  1  0
 31 16  1  0
 17 18  1  6
 19 20  2  0
 19 24  1  0
 20 21  1  0
 21 22  2  0
 23 22  1  0
 24 23  2  0
 30 25  1  6
 28 26  1  0
 27 28  1  0
 27 29  1  1
 30 40  1  0
 41 31  1  1
 41 33  2  0
 41 34  2  0
M  END
$$$$
