
     RDKit          3D

123123  0  0  0  0  0  0  0  0999 V2000
   94.2520  -11.8555   31.3227 N   0  0  0  0  0  4  0  0  0  0  0  0
   95.2923  -10.8552   30.8983 C   0  0  2  0  0  0  0  0  0  0  0  0
   96.3611  -10.7339   31.9959 C   0  0  0  0  0  0  0  0  0  0  0  0
   96.0348  -10.7921   33.1818 O   0  0  0  0  0  0  0  0  0  0  0  0
   94.5937   -9.5236   30.6670 C   0  0  0  0  0  0  0  0  0  0  0  0
   97.6458  -10.5471   31.5533 N   0  0  0  0  0  0  0  0  0  0  0  0
   98.7870  -10.3238   32.4426 C   0  0  2  0  0  0  0  0  0  0  0  0
   98.4907   -9.1888   33.4609 C   0  0  0  0  0  0  0  0  0  0  0  0
   97.4456   -8.5393   33.3986 O   0  0  0  0  0  0  0  0  0  0  0  0
  100.1333  -10.2334   31.7028 C   0  0  0  0  0  0  0  0  0  0  0  0
  100.5598  -11.5507   31.0300 C   0  0  0  0  0  0  0  0  0  0  0  0
  101.5385  -12.3600   31.8803 C   0  0  0  0  0  0  0  0  0  0  0  0
  101.4170  -13.7763   31.5888 N   0  0  0  0  0  0  0  0  0  0  0  0
  102.4514  -14.4463   31.0328 C   0  0  0  0  0  0  0  0  0  0  0  0
  102.4033  -15.6865   30.6854 N   0  0  0  0  0  0  0  0  0  0  0  0
  103.5405  -13.6907   30.8101 N   0  0  0  0  0  0  0  0  0  0  0  0
   99.3712   -9.1198   34.5186 N   0  0  0  0  0  0  0  0  0  0  0  0
   99.2567   -8.2267   35.6972 C   0  0  2  0  0  0  0  0  0  0  0  0
  100.6034   -8.1312   36.4460 C   0  0  0  0  0  0  0  0  0  0  0  0
  100.6737   -8.2790   37.6637 O   0  0  0  0  0  0  0  0  0  0  0  0
   98.0695   -8.4355   36.6592 C   0  0  2  0  0  0  0  0  0  0  0  0
   98.1889   -9.6102   37.4645 O   0  0  0  0  0  0  0  0  0  0  0  0
   96.7370   -8.4813   35.9175 C   0  0  0  0  0  0  0  0  0  0  0  0
  101.6911   -7.8954   35.6378 N   0  0  0  0  0  0  0  0  0  0  0  0
  103.0841   -7.9689   36.0494 C   0  0  2  0  0  0  0  0  0  0  0  0
  103.4828   -6.8231   37.0073 C   0  0  0  0  0  0  0  0  0  0  0  0
  104.6325   -6.5188   37.2937 O   0  0  0  0  0  0  0  0  0  0  0  0
  104.1202   -8.1725   34.9273 C   0  0  0  0  0  0  0  0  0  0  0  0
  105.5440   -8.3046   35.4853 C   0  0  0  0  0  0  0  0  0  0  0  0
  106.6440   -8.4902   34.4310 C   0  0  0  0  0  0  0  0  0  0  0  0
  106.1372   -8.9006   33.0557 C   0  0  0  0  0  0  0  0  0  0  0  0
  107.0968   -9.8380   32.4366 N   0  0  0  0  0  4  0  0  0  0  0  0
  102.3934   -6.1051   37.4738 N   0  0  0  0  0  0  0  0  0  0  0  0
  102.5223   -4.9499   38.3694 C   0  0  2  0  0  0  0  0  0  0  0  0
  101.1867   -4.1850   38.5858 C   0  0  0  0  0  0  0  0  0  0  0  0
  101.1303   -2.9652   38.7534 O   0  0  0  0  0  0  0  0  0  0  0  0
  103.7347   -4.0684   38.0351 C   0  0  0  0  0  0  0  0  0  0  0  0
  103.7105   -3.3641   36.6716 C   0  0  0  0  0  0  0  0  0  0  0  0
  103.5135   -1.8647   36.7603 C   0  0  0  0  0  0  0  0  0  0  0  0
  103.9838   -1.1544   37.6451 O   0  0  0  0  0  0  0  0  0  0  0  0
  102.7378   -1.3225   35.7730 N   0  0  0  0  0  0  0  0  0  0  0  0
  100.0833   -4.9800   38.8145 N   0  0  0  0  0  0  0  0  0  0  0  0
   99.2925   -4.7951   40.0494 C   0  0  2  0  0  0  0  0  0  0  0  0
   99.3554   -3.3512   40.5945 C   0  0  0  0  0  0  0  0  0  0  0  0
  100.3689   -2.6683   40.5178 O   0  0  0  0  0  0  0  0  0  0  0  0
   99.7973   -5.7607   41.1527 C   0  0  2  0  0  0  0  0  0  0  0  0
  101.1696   -6.1255   40.8749 O   0  0  0  0  0  0  0  0  0  0  0  0
   98.9170   -7.0002   41.2402 C   0  0  0  0  0  0  0  0  0  0  0  0
   98.1496   -2.8779   41.0668 N   0  0  0  0  0  0  0  0  0  0  0  0
   97.9980   -1.6623   41.8600 C   0  0  2  0  0  0  0  0  0  0  0  0
   99.0022   -1.8488   43.0151 C   0  0  0  0  0  0  0  0  0  0  0  0
   98.6621   -2.1799   44.1558 O   0  0  0  0  0  0  0  0  0  0  0  0
   96.5877   -1.3777   42.3699 C   0  0  0  0  0  0  0  0  0  0  0  0
  100.2846   -1.4061   42.7507 N   0  0  0  0  0  0  0  0  0  0  0  0
  101.3806   -1.4858   43.7141 C   0  0  2  0  0  0  0  0  0  0  0  0
  101.9384   -0.0926   44.0857 C   0  0  0  0  0  0  0  0  0  0  0  0
  102.6267    0.1076   45.0832 O   0  0  0  0  0  0  0  0  0  0  0  0
  102.4822   -2.4598   43.2715 C   0  0  0  0  0  0  0  0  0  0  0  0
  103.4152   -2.9992   44.3619 C   0  0  0  0  0  0  0  0  0  0  0  0
  104.4859   -3.9867   43.8959 C   0  0  0  0  0  0  0  0  0  0  0  0
  105.7208   -3.7106   44.6163 N   0  0  0  0  0  0  0  0  0  0  0  0
  106.8478   -4.4504   44.5013 C   0  0  0  0  0  0  0  0  0  0  0  0
  107.6870   -4.4711   43.5288 N   0  0  0  0  0  0  0  0  0  0  0  0
  107.0459   -5.1963   45.5997 N   0  0  0  0  0  0  0  0  0  0  0  0
  101.5193    0.9352   43.2713 N   0  0  0  0  0  0  0  0  0  0  0  0
  102.3963    1.6958   42.3736 C   0  0  2  0  0  0  0  0  0  0  0  0
  101.8632    1.9450   40.9410 C   0  0  0  0  0  0  0  0  0  0  0  0
  102.4858    1.5283   39.9629 O   0  0  0  0  0  0  0  0  0  0  0  0
  103.8406    1.1603   42.3793 C   0  0  0  0  0  0  0  0  0  0  0  0
  104.4827    1.2636   40.9847 C   0  0  0  0  0  0  0  0  0  0  0  0
  106.0104    1.3404   41.0468 C   0  0  0  0  0  0  0  0  0  0  0  0
  106.6014    1.1022   42.4374 C   0  0  0  0  0  0  0  0  0  0  0  0
  107.8888    1.7966   42.6148 N   0  0  0  0  0  4  0  0  0  0  0  0
  100.6587    2.5920   40.8422 N   0  0  0  0  0  0  0  0  0  0  0  0
  100.2934    3.5840   39.8133 C   0  0  2  0  0  0  0  0  0  0  0  0
   98.9137    3.2419   39.2093 C   0  0  0  0  0  0  0  0  0  0  0  0
   97.9114    3.1036   39.9063 O   0  0  0  0  0  0  0  0  0  0  0  0
  101.3344    3.8248   38.7116 C   0  0  0  0  0  0  0  0  0  0  0  0
  102.3376    2.7957   38.7114 O   0  0  0  0  0  0  0  0  0  0  0  0
   98.9083    3.1004   37.8307 N   0  0  0  0  0  0  0  0  0  0  0  0
   97.7344    2.4660   37.1906 C   0  0  2  0  0  0  0  0  0  0  0  0
   96.8112    1.7158   38.1678 C   0  0  0  0  0  0  0  0  0  0  0  0
   96.9310    0.5096   38.3674 O   0  0  0  0  0  0  0  0  0  0  0  0
   98.2229    1.4392   36.1311 C   0  0  2  0  0  0  0  0  0  0  0  0
   99.6572    1.3183   36.2150 O   0  0  0  0  0  0  0  0  0  0  0  0
   97.8296    1.8547   34.7196 C   0  0  0  0  0  0  0  0  0  0  0  0
   96.0146    2.5115   38.9633 N   0  0  0  0  0  0  0  0  0  0  0  0
   94.9497    1.9351   39.7741 C   0  0  0  0  0  0  0  0  0  0  0  0
   94.8126    0.4237   39.5812 C   0  0  0  0  0  0  0  0  0  0  0  0
   95.7162   -0.3581   39.8677 O   0  0  0  0  0  0  0  0  0  0  0  0
   93.6355    0.0188   39.0004 N   0  0  0  0  0  0  0  0  0  0  0  0
   93.5422   -1.2846   38.3505 C   0  0  0  0  0  0  0  0  0  0  0  0
   94.1092   -1.1698   36.9351 C   0  0  0  0  0  0  0  0  0  0  0  0
   93.6935   -0.3513   36.1147 O   0  0  0  0  0  0  0  0  0  0  0  0
   95.1061   -2.0688   36.6012 N   0  0  0  0  0  0  0  0  0  0  0  0
   95.5347   -2.2287   35.2046 C   0  0  1  0  0  0  0  0  0  0  0  0
   95.3398   -3.6726   34.7189 C   0  0  0  0  0  0  0  0  0  0  0  0
   96.2986   -4.6714   35.3992 C   0  0  0  0  0  0  0  0  0  0  0  0
   96.0427   -6.1234   35.0124 C   0  0  0  0  0  0  0  0  0  0  0  0
   96.4319   -7.1136   36.0995 C   0  0  0  0  0  0  0  0  0  0  0  0
   97.8351   -6.9191   36.4389 N   0  0  0  0  0  0  0  0  0  0  0  0
   98.8338   -7.3395   35.6028 C   0  0  0  0  0  0  0  0  0  0  0  0
   99.1819   -6.7457   34.5902 O   0  0  0  0  0  0  0  0  0  0  0  0
   99.4580   -8.6130   36.0397 C   0  0  0  0  0  0  0  0  0  0  0  0
  100.6135   -9.0125   35.4874 C   0  0  0  0  0  0  0  0  0  0  0  0
  101.2924  -10.3085   35.7806 C   0  0  0  0  0  0  0  0  0  0  0  0
   94.8100   -1.1852   34.2945 C   0  0  0  0  0  0  0  0  0  0  0  0
   93.6535   -0.7958   34.4635 O   0  0  0  0  0  0  0  0  0  0  0  0
   95.5418   -0.8476   33.1761 N   0  0  0  0  0  0  0  0  0  0  0  0
   95.9675    0.5079   32.8989 C   0  0  2  0  0  0  0  0  0  0  0  0
   94.7862    1.4959   32.7630 C   0  0  0  0  0  0  0  0  0  0  0  0
   94.7534    2.4905   33.4983 O   0  0  0  0  0  0  0  0  0  0  0  0
   96.9044    0.5489   31.7161 C   0  0  0  0  0  0  0  0  0  0  0  0
   93.7876    1.2818   31.8373 N   0  0  0  0  0  0  0  0  0  0  0  0
   94.1370    0.9057   30.4632 C   0  0  2  0  0  0  0  0  0  0  0  0
   94.5614    2.1162   29.6086 C   0  0  0  0  0  0  0  0  0  0  0  0
   95.3144    2.1379   28.6465 O   0  0  0  0  0  0  0  0  0  0  0  0
   92.8633    0.2431   29.9275 C   0  0  0  0  0  0  0  0  0  0  0  0
   91.7573    0.9725   30.6788 C   0  0  0  0  0  0  0  0  0  0  0  0
   92.3581    1.1042   32.0694 C   0  0  0  0  0  0  0  0  0  0  0  0
   93.9313    3.2486   29.9864 O   0  0  0  0  0  0  0  0  0  0  0  0
  101.4068  -15.9603   30.6615 H   0  0  0  0  0  0  0  0  0  0  0  0
  108.0570   -5.4226   43.4580 H   0  0  0  0  0  0  0  0  0  0  0  0
  1  2  1  0
  2  3  1  0
  2  5  1  1
  3  4  2  0
  3  6  1  0
  6  7  1  0
  7  8  1  0
  7 10  1  6
  8  9  2  0
  8 17  1  0
 10 11  1  0
 11 12  1  0
 12 13  1  0
 13 14  1  0
 14 15  2  0
 14 16  1  0
 18 17  1  6
 18 19  1  0
 18 21  1  0
 19 20  2  0
 19 24  1  0
 21 22  1  0
 21 23  1  6
 24 25  1  0
 25 26  1  0
 25 28  1  6
 26 27  2  0
 26 33  1  0
 28 29  1  0
 29 30  1  0
 30 31  1  0
 31 32  1  0
 33 34  1  0
 34 35  1  0
 34 37  1  6
 35 36  2  0
 35 42  1  0
 37 38  1  0
 38 39  1  0
 39 40  2  0
 39 41  1  0
 43 42  1  6
 43 44  1  0
 43 46  1  0
 44 45  2  0
 44 49  1  0
 46 47  1  0
 46 48  1  6
 49 50  1  0
 50 51  1  0
 50 53  1  1
 51 52  2  0
 51 54  1  0
 54 55  1  0
 55 56  1  0
 55 58  1  6
 56 57  2  0
 56 65  1  0
 58 59  1  0
 59 60  1  0
 60 61  1  0
 61 62  1  0
 62 63  2  0
 62 64  1  0
 65 66  1  0
 66 67  1  0
 66 69  1  6
 67 68  2  0
 67 74  1  0
 69 70  1  0
 70 71  1  0
 71 72  1  0
 72 73  1  0
 74 75  1  0
 75 76  1  0
 75 78  1  6
 76 77  2  0
 76 80  1  0
 78 79  1  0
 81 80  1  1
 81 82  1  0
 81 84  1  0
 82 83  2  0
 82 87  1  0
 84 85  1  0
 84 86  1  6
 87 88  1  0
 88 89  1  0
 89 90  2  0
 89 91  1  0
 91 92  1  0
 92 93  1  0
 93 94  2  0
 93 95  1  0
 95 96  1  0
 96 97  1  6
 96107  1  0
 97 98  1  0
 98 99  1  0
 99100  1  0
100101  1  0
101102  1  0
102103  2  0
102104  1  0
104105  2  0
105106  1  0
107108  2  0
107109  1  0
109110  1  0
110111  1  0
110113  1  6
111112  2  0
111114  1  0
114115  1  0
114120  1  0
115116  1  6
115118  1  0
116117  2  0
116121  1  0
118119  1  0
119120  1  0
 15122  1  0
 63123  1  0
M  CHG  3   1   1  32   1  73   1
M  END
$$$$
