
     RDKit          3D

123123  0  0  0  0  0  0  0  0999 V2000
   99.5830  -14.9727   26.6758 N   0  0  0  0  0  4  0  0  0  0  0  0
   99.6377  -15.4745   28.0929 C   0  0  2  0  0  0  0  0  0  0  0  0
   99.9565  -14.3041   29.0366 C   0  0  0  0  0  0  0  0  0  0  0  0
  100.4797  -13.2812   28.5935 O   0  0  0  0  0  0  0  0  0  0  0  0
  100.7153  -16.5458   28.1684 C   0  0  0  0  0  0  0  0  0  0  0  0
   99.6354  -14.5023   30.3552 N   0  0  0  0  0  0  0  0  0  0  0  0
   99.4693  -13.4164   31.3229 C   0  0  2  0  0  0  0  0  0  0  0  0
  100.0682  -13.7997   32.7039 C   0  0  0  0  0  0  0  0  0  0  0  0
  100.4307  -14.9536   32.9385 O   0  0  0  0  0  0  0  0  0  0  0  0
   98.0491  -12.8241   31.3432 C   0  0  0  0  0  0  0  0  0  0  0  0
   97.9835  -11.3570   30.8811 C   0  0  0  0  0  0  0  0  0  0  0  0
   96.5876  -10.7522   31.0271 C   0  0  0  0  0  0  0  0  0  0  0  0
   96.2282  -10.0054   29.8360 N   0  0  0  0  0  0  0  0  0  0  0  0
   95.4979   -8.8723   29.9396 C   0  0  0  0  0  0  0  0  0  0  0  0
   94.8573   -8.5223   31.0017 N   0  0  0  0  0  0  0  0  0  0  0  0
   95.5376   -8.0902   28.8470 N   0  0  0  0  0  0  0  0  0  0  0  0
  100.3370  -12.7312   33.5316 N   0  0  0  0  0  0  0  0  0  0  0  0
  101.2500  -12.7362   34.7004 C   0  0  2  0  0  0  0  0  0  0  0  0
  100.8511  -11.6411   35.7128 C   0  0  0  0  0  0  0  0  0  0  0  0
   99.6741  -11.3594   35.9246 O   0  0  0  0  0  0  0  0  0  0  0  0
  102.7699  -12.7620   34.4399 C   0  0  2  0  0  0  0  0  0  0  0  0
  103.2697  -11.5527   33.8652 O   0  0  0  0  0  0  0  0  0  0  0  0
  103.1752  -13.9333   33.5501 C   0  0  0  0  0  0  0  0  0  0  0  0
  101.9104  -11.0440   36.3557 N   0  0  0  0  0  0  0  0  0  0  0  0
  101.8150  -10.1730   37.5164 C   0  0  2  0  0  0  0  0  0  0  0  0
  101.1410   -8.8203   37.1915 C   0  0  0  0  0  0  0  0  0  0  0  0
  101.1311   -7.8477   37.9332 O   0  0  0  0  0  0  0  0  0  0  0  0
  103.1007   -9.9946   38.3467 C   0  0  0  0  0  0  0  0  0  0  0  0
  104.3383  -10.5032   37.5947 C   0  0  0  0  0  0  0  0  0  0  0  0
  105.5775  -10.7477   38.4668 C   0  0  0  0  0  0  0  0  0  0  0  0
  105.3480  -10.5522   39.9587 C   0  0  0  0  0  0  0  0  0  0  0  0
  105.7949   -9.2002   40.3528 N   0  0  0  0  0  4  0  0  0  0  0  0
  100.5916   -8.7820   35.9200 N   0  0  0  0  0  0  0  0  0  0  0  0
   99.6715   -7.7276   35.4789 C   0  0  2  0  0  0  0  0  0  0  0  0
   98.4978   -7.4797   36.4673 C   0  0  0  0  0  0  0  0  0  0  0  0
   97.8552   -6.4284   36.4972 O   0  0  0  0  0  0  0  0  0  0  0  0
   99.2668   -7.8679   34.0040 C   0  0  0  0  0  0  0  0  0  0  0  0
  100.2775   -7.3573   32.9680 C   0  0  0  0  0  0  0  0  0  0  0  0
  100.7384   -5.9349   33.2113 C   0  0  0  0  0  0  0  0  0  0  0  0
  101.7451   -5.6310   33.8460 O   0  0  0  0  0  0  0  0  0  0  0  0
   99.9327   -4.9655   32.6809 N   0  0  0  0  0  0  0  0  0  0  0  0
   98.3660   -8.4158   37.4713 N   0  0  0  0  0  0  0  0  0  0  0  0
   97.2229   -8.3306   38.4044 C   0  0  2  0  0  0  0  0  0  0  0  0
   97.6514   -8.0164   39.8547 C   0  0  0  0  0  0  0  0  0  0  0  0
   96.9951   -7.2848   40.5852 O   0  0  0  0  0  0  0  0  0  0  0  0
   96.4347   -9.6661   38.4018 C   0  0  2  0  0  0  0  0  0  0  0  0
   96.5054  -10.2581   37.0835 O   0  0  0  0  0  0  0  0  0  0  0  0
   94.9863   -9.4478   38.8179 C   0  0  0  0  0  0  0  0  0  0  0  0
   98.7642   -8.7145   40.2736 N   0  0  0  0  0  0  0  0  0  0  0  0
   99.3987   -8.5438   41.5766 C   0  0  2  0  0  0  0  0  0  0  0  0
   99.0711   -7.0861   41.9576 C   0  0  0  0  0  0  0  0  0  0  0  0
   98.2991   -6.7873   42.8748 O   0  0  0  0  0  0  0  0  0  0  0  0
  100.8988   -8.8225   41.6226 C   0  0  0  0  0  0  0  0  0  0  0  0
   99.5236   -6.1336   41.0640 N   0  0  0  0  0  0  0  0  0  0  0  0
   99.1761   -4.7168   41.1499 C   0  0  2  0  0  0  0  0  0  0  0  0
   99.7308   -3.9027   39.9584 C   0  0  0  0  0  0  0  0  0  0  0  0
  100.0412   -2.7173   40.0453 O   0  0  0  0  0  0  0  0  0  0  0  0
   99.5505   -4.1011   42.5059 C   0  0  0  0  0  0  0  0  0  0  0  0
  101.0393   -4.0698   42.8702 C   0  0  0  0  0  0  0  0  0  0  0  0
  101.5143   -2.8319   43.6324 C   0  0  0  0  0  0  0  0  0  0  0  0
  101.4466   -3.1084   45.0604 N   0  0  0  0  0  0  0  0  0  0  0  0
  100.2947   -3.1693   45.7674 C   0  0  0  0  0  0  0  0  0  0  0  0
   99.9708   -2.4995   46.8147 N   0  0  0  0  0  0  0  0  0  0  0  0
   99.4359   -4.0380   45.2108 N   0  0  0  0  0  0  0  0  0  0  0  0
   99.7541   -4.5758   38.7578 N   0  0  0  0  0  0  0  0  0  0  0  0
  100.0617   -3.9573   37.4630 C   0  0  2  0  0  0  0  0  0  0  0  0
   98.9011   -3.2019   36.7695 C   0  0  0  0  0  0  0  0  0  0  0  0
   98.9624   -2.9316   35.5691 O   0  0  0  0  0  0  0  0  0  0  0  0
  100.7836   -4.9291   36.5106 C   0  0  0  0  0  0  0  0  0  0  0  0
  102.2485   -5.1419   36.9308 C   0  0  0  0  0  0  0  0  0  0  0  0
  103.0126   -6.0436   35.9578 C   0  0  0  0  0  0  0  0  0  0  0  0
  104.4269   -6.4105   36.4105 C   0  0  0  0  0  0  0  0  0  0  0  0
  104.6573   -7.8653   36.3720 N   0  0  0  0  0  4  0  0  0  0  0  0
   97.8096   -2.9140   37.5473 N   0  0  0  0  0  0  0  0  0  0  0  0
   96.4248   -2.7517   37.0655 C   0  0  2  0  0  0  0  0  0  0  0  0
   95.4666   -2.5428   38.2586 C   0  0  0  0  0  0  0  0  0  0  0  0
   94.2848   -2.2450   38.1032 O   0  0  0  0  0  0  0  0  0  0  0  0
   95.9065   -3.8492   36.1263 C   0  0  0  0  0  0  0  0  0  0  0  0
   95.2542   -4.8970   36.8624 O   0  0  0  0  0  0  0  0  0  0  0  0
   96.0519   -2.7126   39.5033 N   0  0  0  0  0  0  0  0  0  0  0  0
   95.5813   -1.8706   40.6257 C   0  0  2  0  0  0  0  0  0  0  0  0
   96.4517   -0.6290   40.8916 C   0  0  0  0  0  0  0  0  0  0  0  0
   96.3677    0.0016   41.9425 O   0  0  0  0  0  0  0  0  0  0  0  0
   95.5682   -2.7173   41.9290 C   0  0  2  0  0  0  0  0  0  0  0  0
   96.9255   -3.0113   42.3162 O   0  0  0  0  0  0  0  0  0  0  0  0
   94.7978   -4.0186   41.7486 C   0  0  0  0  0  0  0  0  0  0  0  0
   97.4749   -0.4163   39.9927 N   0  0  0  0  0  0  0  0  0  0  0  0
   98.4396    0.6574   40.1939 C   0  0  0  0  0  0  0  0  0  0  0  0
   99.5394    0.6702   39.1306 C   0  0  0  0  0  0  0  0  0  0  0  0
  100.6432    0.1660   39.3234 O   0  0  0  0  0  0  0  0  0  0  0  0
   99.2223    1.3472   37.9783 N   0  0  0  0  0  0  0  0  0  0  0  0
  100.2052    1.4855   36.9083 C   0  0  0  0  0  0  0  0  0  0  0  0
  101.2082    2.5713   37.2996 C   0  0  0  0  0  0  0  0  0  0  0  0
  102.1403    2.3686   38.0780 O   0  0  0  0  0  0  0  0  0  0  0  0
  100.9953    3.8250   36.7552 N   0  0  0  0  0  0  0  0  0  0  0  0
  101.9273    4.9285   37.0264 C   0  0  1  0  0  0  0  0  0  0  0  0
  102.5053    5.5080   35.7268 C   0  0  0  0  0  0  0  0  0  0  0  0
  103.5417    4.5789   35.0619 C   0  0  0  0  0  0  0  0  0  0  0  0
  103.8190    4.9194   33.6022 C   0  0  0  0  0  0  0  0  0  0  0  0
  102.7516    4.4019   32.6500 C   0  0  0  0  0  0  0  0  0  0  0  0
  103.3967    3.8706   31.4568 N   0  0  0  0  0  0  0  0  0  0  0  0
  103.4911    4.6116   30.3099 C   0  0  0  0  0  0  0  0  0  0  0  0
  104.0887    5.6768   30.2236 O   0  0  0  0  0  0  0  0  0  0  0  0
  102.7771    3.9979   29.1628 C   0  0  0  0  0  0  0  0  0  0  0  0
  102.8620    4.5598   27.9475 C   0  0  0  0  0  0  0  0  0  0  0  0
  103.6317    3.9939   26.8013 C   0  0  0  0  0  0  0  0  0  0  0  0
  101.2359    6.0136   37.9134 C   0  0  0  0  0  0  0  0  0  0  0  0
  100.2666    6.6881   37.5624 O   0  0  0  0  0  0  0  0  0  0  0  0
  101.9147    6.2601   39.0878 N   0  0  0  0  0  0  0  0  0  0  0  0
  101.3022    6.1151   40.3913 C   0  0  2  0  0  0  0  0  0  0  0  0
  102.3106    6.2693   41.5529 C   0  0  0  0  0  0  0  0  0  0  0  0
  103.0517    5.3178   41.8291 O   0  0  0  0  0  0  0  0  0  0  0  0
  100.5041    4.8366   40.4742 C   0  0  0  0  0  0  0  0  0  0  0  0
  102.3920    7.4449   42.2679 N   0  0  0  0  0  0  0  0  0  0  0  0
  103.6085    8.2609   42.1914 C   0  0  2  0  0  0  0  0  0  0  0  0
  104.7373    7.7257   43.0943 C   0  0  0  0  0  0  0  0  0  0  0  0
  105.8882    7.4529   42.7875 O   0  0  0  0  0  0  0  0  0  0  0  0
  103.1433    9.6567   42.6203 C   0  0  0  0  0  0  0  0  0  0  0  0
  102.0155    9.3550   43.5984 C   0  0  0  0  0  0  0  0  0  0  0  0
  101.3179    8.1863   42.9203 C   0  0  0  0  0  0  0  0  0  0  0  0
  104.3533    7.6353   44.3852 O   0  0  0  0  0  0  0  0  0  0  0  0
   95.3986   -8.8638   31.8134 H   0  0  0  0  0  0  0  0  0  0  0  0
   99.6246   -1.5874   46.5053 H   0  0  0  0  0  0  0  0  0  0  0  0
  1  2  1  0
  2  3  1  0
  2  5  1  6
  3  4  2  0
  3  6  1  0
  6  7  1  0
  7  8  1  0
  7 10  1  1
  8  9  2  0
  8 17  1  0
 10 11  1  0
 11 12  1  0
 12 13  1  0
 13 14  1  0
 14 15  2  0
 14 16  1  0
 18 17  1  6
 18 19  1  0
 18 21  1  0
 19 20  2  0
 19 24  1  0
 21 22  1  0
 21 23  1  6
 24 25  1  0
 25 26  1  0
 25 28  1  6
 26 27  2  0
 26 33  1  0
 28 29  1  0
 29 30  1  0
 30 31  1  0
 31 32  1  0
 33 34  1  0
 34 35  1  0
 34 37  1  6
 35 36  2  0
 35 42  1  0
 37 38  1  0
 38 39  1  0
 39 40  2  0
 39 41  1  0
 43 42  1  6
 43 44  1  0
 43 46  1  0
 44 45  2  0
 44 49  1  0
 46 47  1  0
 46 48  1  6
 49 50  1  0
 50 51  1  0
 50 53  1  6
 51 52  2  0
 51 54  1  0
 54 55  1  0
 55 56  1  0
 55 58  1  1
 56 57  2  0
 56 65  1  0
 58 59  1  0
 59 60  1  0
 60 61  1  0
 61 62  1  0
 62 63  2  0
 62 64  1  0
 65 66  1  0
 66 67  1  0
 66 69  1  6
 67 68  2  0
 67 74  1  0
 69 70  1  0
 70 71  1  0
 71 72  1  0
 72 73  1  0
 74 75  1  0
 75 76  1  0
 75 78  1  1
 76 77  2  0
 76 80  1  0
 78 79  1  0
 81 80  1  6
 81 82  1  0
 81 84  1  0
 82 83  2  0
 82 87  1  0
 84 85  1  0
 84 86  1  6
 87 88  1  0
 88 89  1  0
 89 90  2  0
 89 91  1  0
 91 92  1  0
 92 93  1  0
 93 94  2  0
 93 95  1  0
 95 96  1  0
 96 97  1  6
 96107  1  0
 97 98  1  0
 98 99  1  0
 99100  1  0
100101  1  0
101102  1  0
102103  2  0
102104  1  0
104105  2  0
105106  1  0
107108  2  0
107109  1  0
109110  1  0
110111  1  0
110113  1  6
111112  2  0
111114  1  0
114115  1  0
114120  1  0
115116  1  1
115118  1  0
116117  2  0
116121  1  0
118119  1  0
119120  1  0
 15122  1  0
 63123  1  0
M  CHG  3   1   1  32   1  73   1
M  END
$$$$
