
     RDKit          3D

123123  0  0  0  0  0  0  0  0999 V2000
   91.1951  -13.0787   32.4759 N   0  0  0  0  0  4  0  0  0  0  0  0
   92.4787  -12.9819   33.2543 C   0  0  2  0  0  0  0  0  0  0  0  0
   93.1385  -11.6207   32.9830 C   0  0  0  0  0  0  0  0  0  0  0  0
   92.8482  -10.9875   31.9677 O   0  0  0  0  0  0  0  0  0  0  0  0
   93.3811  -14.1240   32.8119 C   0  0  0  0  0  0  0  0  0  0  0  0
   94.0482  -11.2060   33.9220 N   0  0  0  0  0  0  0  0  0  0  0  0
   94.8112   -9.9609   33.8195 C   0  0  2  0  0  0  0  0  0  0  0  0
   96.3083  -10.2441   33.5172 C   0  0  0  0  0  0  0  0  0  0  0  0
   96.8260  -11.3167   33.8326 O   0  0  0  0  0  0  0  0  0  0  0  0
   94.5284   -8.9714   34.9636 C   0  0  0  0  0  0  0  0  0  0  0  0
   93.0595   -8.9615   35.4246 C   0  0  0  0  0  0  0  0  0  0  0  0
   92.7274   -7.7666   36.3178 C   0  0  0  0  0  0  0  0  0  0  0  0
   91.6504   -6.9832   35.7418 N   0  0  0  0  0  0  0  0  0  0  0  0
   91.9069   -5.7716   35.1994 C   0  0  0  0  0  0  0  0  0  0  0  0
   93.0823   -5.3704   34.8550 N   0  0  0  0  0  0  0  0  0  0  0  0
   90.8123   -5.0209   34.9866 N   0  0  0  0  0  0  0  0  0  0  0  0
   96.9205   -9.3076   32.7127 N   0  0  0  0  0  0  0  0  0  0  0  0
   98.3636   -8.9650   32.7089 C   0  0  2  0  0  0  0  0  0  0  0  0
   99.0060   -9.2804   34.0768 C   0  0  0  0  0  0  0  0  0  0  0  0
   98.5157   -8.8719   35.1268 O   0  0  0  0  0  0  0  0  0  0  0  0
   98.7842   -7.5810   32.1736 C   0  0  2  0  0  0  0  0  0  0  0  0
   98.4382   -6.5037   33.0467 O   0  0  0  0  0  0  0  0  0  0  0  0
   98.1981   -7.3025   30.7928 C   0  0  0  0  0  0  0  0  0  0  0  0
  100.1360  -10.0619   34.0108 N   0  0  0  0  0  0  0  0  0  0  0  0
  101.1429  -10.1850   35.0529 C   0  0  2  0  0  0  0  0  0  0  0  0
  100.7831   -9.3846   36.3256 C   0  0  0  0  0  0  0  0  0  0  0  0
  100.2734   -9.8605   37.3306 O   0  0  0  0  0  0  0  0  0  0  0  0
  102.6053   -9.9613   34.6225 C   0  0  0  0  0  0  0  0  0  0  0  0
  103.5496  -10.9888   35.2616 C   0  0  0  0  0  0  0  0  0  0  0  0
  105.0048  -10.9283   34.7771 C   0  0  0  0  0  0  0  0  0  0  0  0
  105.9200  -11.9755   35.3955 C   0  0  0  0  0  0  0  0  0  0  0  0
  105.9326  -13.1831   34.5443 N   0  0  0  0  0  4  0  0  0  0  0  0
  101.1629   -8.0540   36.2524 N   0  0  0  0  0  0  0  0  0  0  0  0
  101.8557   -7.3599   37.3438 C   0  0  2  0  0  0  0  0  0  0  0  0
  102.0587   -5.8418   37.0790 C   0  0  0  0  0  0  0  0  0  0  0  0
  103.1584   -5.2894   37.1448 O   0  0  0  0  0  0  0  0  0  0  0  0
  103.1027   -8.1117   37.8323 C   0  0  0  0  0  0  0  0  0  0  0  0
  103.4264   -7.9960   39.3281 C   0  0  0  0  0  0  0  0  0  0  0  0
  103.6318   -9.3304   40.0152 C   0  0  0  0  0  0  0  0  0  0  0  0
  103.1474  -10.3911   39.6294 O   0  0  0  0  0  0  0  0  0  0  0  0
  104.4019   -9.2885   41.1446 N   0  0  0  0  0  0  0  0  0  0  0  0
  100.9000   -5.0988   36.9951 N   0  0  0  0  0  0  0  0  0  0  0  0
  100.9689   -3.6816   36.5807 C   0  0  2  0  0  0  0  0  0  0  0  0
   99.5838   -2.9998   36.5335 C   0  0  0  0  0  0  0  0  0  0  0  0
   99.3850   -1.9689   35.9031 O   0  0  0  0  0  0  0  0  0  0  0  0
  101.6213   -3.5697   35.1783 C   0  0  2  0  0  0  0  0  0  0  0  0
  100.7328   -4.1460   34.1925 O   0  0  0  0  0  0  0  0  0  0  0  0
  102.9787   -4.2592   35.1494 C   0  0  0  0  0  0  0  0  0  0  0  0
   98.5874   -3.7115   37.1674 N   0  0  0  0  0  0  0  0  0  0  0  0
   97.7350   -3.1709   38.2214 C   0  0  2  0  0  0  0  0  0  0  0  0
   98.7302   -2.7587   39.3247 C   0  0  0  0  0  0  0  0  0  0  0  0
   99.1355   -1.6003   39.4671 O   0  0  0  0  0  0  0  0  0  0  0  0
   96.6570   -4.1144   38.7483 C   0  0  0  0  0  0  0  0  0  0  0  0
   99.3128   -3.8099   40.0074 N   0  0  0  0  0  0  0  0  0  0  0  0
  100.2776   -3.6329   41.0907 C   0  0  2  0  0  0  0  0  0  0  0  0
  101.5601   -2.9076   40.6222 C   0  0  0  0  0  0  0  0  0  0  0  0
  102.6418   -3.4761   40.4970 O   0  0  0  0  0  0  0  0  0  0  0  0
  100.5818   -4.9456   41.8270 C   0  0  0  0  0  0  0  0  0  0  0  0
   99.9859   -6.2296   41.2381 C   0  0  0  0  0  0  0  0  0  0  0  0
  100.3200   -7.5231   41.9823 C   0  0  0  0  0  0  0  0  0  0  0  0
  100.4857   -8.5927   41.0082 N   0  0  0  0  0  0  0  0  0  0  0  0
  100.9858   -9.8151   41.3015 C   0  0  0  0  0  0  0  0  0  0  0  0
  101.7163  -10.1537   42.3025 N   0  0  0  0  0  0  0  0  0  0  0  0
  100.5887  -10.7249   40.3978 N   0  0  0  0  0  0  0  0  0  0  0  0
  101.4282   -1.5476   40.4548 N   0  0  0  0  0  0  0  0  0  0  0  0
  102.5431   -0.6291   40.1963 C   0  0  2  0  0  0  0  0  0  0  0  0
  103.3811   -0.2024   41.4269 C   0  0  0  0  0  0  0  0  0  0  0  0
  104.3908    0.4890   41.2841 O   0  0  0  0  0  0  0  0  0  0  0  0
  102.1195    0.5707   39.3281 C   0  0  0  0  0  0  0  0  0  0  0  0
  101.8522    0.1443   37.8740 C   0  0  0  0  0  0  0  0  0  0  0  0
  101.5234    1.3319   36.9656 C   0  0  0  0  0  0  0  0  0  0  0  0
  101.3997    0.9805   35.4821 C   0  0  0  0  0  0  0  0  0  0  0  0
  100.1037    1.4029   34.9224 N   0  0  0  0  0  4  0  0  0  0  0  0
  102.9045   -0.5880   42.6530 N   0  0  0  0  0  0  0  0  0  0  0  0
  103.3831   -0.0964   43.9588 C   0  0  2  0  0  0  0  0  0  0  0  0
  104.0061   -1.2547   44.7685 C   0  0  0  0  0  0  0  0  0  0  0  0
  104.8114   -1.0588   45.6755 O   0  0  0  0  0  0  0  0  0  0  0  0
  102.3612    0.6793   44.8011 C   0  0  0  0  0  0  0  0  0  0  0  0
  101.7613    1.7413   44.0410 O   0  0  0  0  0  0  0  0  0  0  0  0
  103.5867   -2.5177   44.3819 N   0  0  0  0  0  0  0  0  0  0  0  0
  104.0181   -3.6821   45.1871 C   0  0  2  0  0  0  0  0  0  0  0  0
  103.6670   -5.0453   44.5640 C   0  0  0  0  0  0  0  0  0  0  0  0
  104.4333   -6.0026   44.6387 O   0  0  0  0  0  0  0  0  0  0  0  0
  103.3364   -3.6191   46.5825 C   0  0  2  0  0  0  0  0  0  0  0  0
  101.9256   -3.3765   46.4097 O   0  0  0  0  0  0  0  0  0  0  0  0
  103.9372   -2.5248   47.4549 C   0  0  0  0  0  0  0  0  0  0  0  0
  102.3650   -5.1849   44.1330 N   0  0  0  0  0  0  0  0  0  0  0  0
  101.6616   -4.0773   43.4989 C   0  0  0  0  0  0  0  0  0  0  0  0
  100.4958   -4.5415   42.6237 C   0  0  0  0  0  0  0  0  0  0  0  0
   99.3252   -4.4366   42.9819 O   0  0  0  0  0  0  0  0  0  0  0  0
  100.8615   -5.1453   41.4454 N   0  0  0  0  0  0  0  0  0  0  0  0
   99.8534   -5.4911   40.4484 C   0  0  0  0  0  0  0  0  0  0  0  0
   99.2762   -4.2008   39.8651 C   0  0  0  0  0  0  0  0  0  0  0  0
   99.0513   -3.2022   40.5490 O   0  0  0  0  0  0  0  0  0  0  0  0
   98.9801   -4.2197   38.5139 N   0  0  0  0  0  0  0  0  0  0  0  0
   98.6640   -2.9757   37.7981 C   0  0  1  0  0  0  0  0  0  0  0  0
   98.6740   -3.1850   36.2765 C   0  0  0  0  0  0  0  0  0  0  0  0
   98.7371   -1.8612   35.4871 C   0  0  0  0  0  0  0  0  0  0  0  0
   98.7194   -2.0510   33.9747 C   0  0  0  0  0  0  0  0  0  0  0  0
   98.5646   -0.7475   33.2062 C   0  0  0  0  0  0  0  0  0  0  0  0
   98.5615   -1.0355   31.7782 N   0  0  0  0  0  0  0  0  0  0  0  0
   99.5825   -0.6202   30.9669 C   0  0  0  0  0  0  0  0  0  0  0  0
  100.6390   -1.2224   30.8237 O   0  0  0  0  0  0  0  0  0  0  0  0
   99.2888    0.6589   30.2739 C   0  0  0  0  0  0  0  0  0  0  0  0
  100.1051    1.0925   29.3016 C   0  0  0  0  0  0  0  0  0  0  0  0
   99.9373    2.3769   28.5608 C   0  0  0  0  0  0  0  0  0  0  0  0
   97.3130   -2.3839   38.3147 C   0  0  0  0  0  0  0  0  0  0  0  0
   96.2552   -3.0119   38.3794 O   0  0  0  0  0  0  0  0  0  0  0  0
   97.3767   -1.0274   38.5526 N   0  0  0  0  0  0  0  0  0  0  0  0
   96.2369   -0.2573   39.0032 C   0  0  2  0  0  0  0  0  0  0  0  0
   94.9419   -0.5828   38.2238 C   0  0  0  0  0  0  0  0  0  0  0  0
   93.9619   -1.0086   38.8476 O   0  0  0  0  0  0  0  0  0  0  0  0
   96.5546    1.2182   39.0212 C   0  0  0  0  0  0  0  0  0  0  0  0
   94.8720   -0.3983   36.8597 N   0  0  0  0  0  0  0  0  0  0  0  0
   93.6893   -0.8563   36.1226 C   0  0  2  0  0  0  0  0  0  0  0  0
   93.7205   -2.3707   35.8370 C   0  0  0  0  0  0  0  0  0  0  0  0
   94.6892   -3.1142   35.7950 O   0  0  0  0  0  0  0  0  0  0  0  0
   93.7152   -0.0283   34.8334 C   0  0  0  0  0  0  0  0  0  0  0  0
   95.2037    0.1967   34.6022 C   0  0  0  0  0  0  0  0  0  0  0  0
   95.7045    0.4517   36.0151 C   0  0  0  0  0  0  0  0  0  0  0  0
   92.4806   -2.8840   35.6911 O   0  0  0  0  0  0  0  0  0  0  0  0
   93.0012   -4.3749   34.5889 H   0  0  0  0  0  0  0  0  0  0  0  0
  101.3371  -11.0247   42.6832 H   0  0  0  0  0  0  0  0  0  0  0  0
  1  2  1  0
  2  3  1  0
  2  5  1  6
  3  4  2  0
  3  6  1  0
  6  7  1  0
  7  8  1  0
  7 10  1  1
  8  9  2  0
  8 17  1  0
 10 11  1  0
 11 12  1  0
 12 13  1  0
 13 14  1  0
 14 15  2  0
 14 16  1  0
 18 17  1  1
 18 19  1  0
 18 21  1  0
 19 20  2  0
 19 24  1  0
 21 22  1  0
 21 23  1  6
 24 25  1  0
 25 26  1  0
 25 28  1  6
 26 27  2  0
 26 33  1  0
 28 29  1  0
 29 30  1  0
 30 31  1  0
 31 32  1  0
 33 34  1  0
 34 35  1  0
 34 37  1  6
 35 36  2  0
 35 42  1  0
 37 38  1  0
 38 39  1  0
 39 40  2  0
 39 41  1  0
 43 42  1  6
 43 44  1  0
 43 46  1  0
 44 45  2  0
 44 49  1  0
 46 47  1  0
 46 48  1  1
 49 50  1  0
 50 51  1  0
 50 53  1  1
 51 52  2  0
 51 54  1  0
 54 55  1  0
 55 56  1  0
 55 58  1  6
 56 57  2  0
 56 65  1  0
 58 59  1  0
 59 60  1  0
 60 61  1  0
 61 62  1  0
 62 63  2  0
 62 64  1  0
 65 66  1  0
 66 67  1  0
 66 69  1  1
 67 68  2  0
 67 74  1  0
 69 70  1  0
 70 71  1  0
 71 72  1  0
 72 73  1  0
 74 75  1  0
 75 76  1  0
 75 78  1  1
 76 77  2  0
 76 80  1  0
 78 79  1  0
 81 80  1  6
 81 82  1  0
 81 84  1  0
 82 83  2  0
 82 87  1  0
 84 85  1  0
 84 86  1  1
 87 88  1  0
 88 89  1  0
 89 90  2  0
 89 91  1  0
 91 92  1  0
 92 93  1  0
 93 94  2  0
 93 95  1  0
 95 96  1  0
 96 97  1  6
 96107  1  0
 97 98  1  0
 98 99  1  0
 99100  1  0
100101  1  0
101102  1  0
102103  2  0
102104  1  0
104105  2  0
105106  1  0
107108  2  0
107109  1  0
109110  1  0
110111  1  0
110113  1  6
111112  2  0
111114  1  0
114115  1  0
114120  1  0
115116  1  6
115118  1  0
116117  2  0
116121  1  0
118119  1  0
119120  1  0
 15122  1  0
 63123  1  0
M  CHG  3   1   1  32   1  73   1
M  END
$$$$
