
     RDKit          3D

123123  0  0  0  0  0  0  0  0999 V2000
   91.5589  -12.5484   36.5472 N   0  0  0  0  0  4  0  0  0  0  0  0
   92.4474  -11.9177   35.5101 C   0  0  2  0  0  0  0  0  0  0  0  0
   93.8841  -12.4338   35.6869 C   0  0  0  0  0  0  0  0  0  0  0  0
   94.8220  -11.8367   35.1577 O   0  0  0  0  0  0  0  0  0  0  0  0
   92.3827  -10.4088   35.6943 C   0  0  0  0  0  0  0  0  0  0  0  0
   94.0154  -13.5742   36.4376 N   0  0  0  0  0  0  0  0  0  0  0  0
   95.2314  -14.3887   36.4719 C   0  0  2  0  0  0  0  0  0  0  0  0
   96.4577  -13.5872   35.9552 C   0  0  0  0  0  0  0  0  0  0  0  0
   96.7707  -12.5103   36.4654 O   0  0  0  0  0  0  0  0  0  0  0  0
   95.0447  -15.7958   35.8776 C   0  0  0  0  0  0  0  0  0  0  0  0
   93.5741  -16.1654   35.6114 C   0  0  0  0  0  0  0  0  0  0  0  0
   93.4200  -17.5191   34.9188 C   0  0  0  0  0  0  0  0  0  0  0  0
   92.8502  -17.3526   33.5947 N   0  0  0  0  0  0  0  0  0  0  0  0
   92.6363  -18.4304   32.8071 C   0  0  0  0  0  0  0  0  0  0  0  0
   92.6923  -19.6492   33.2225 N   0  0  0  0  0  0  0  0  0  0  0  0
   92.2955  -18.1288   31.5422 N   0  0  0  0  0  0  0  0  0  0  0  0
   97.2493  -14.2641   35.0530 N   0  0  0  0  0  0  0  0  0  0  0  0
   98.4505  -13.7288   34.3671 C   0  0  2  0  0  0  0  0  0  0  0  0
   98.0840  -12.5150   33.4862 C   0  0  0  0  0  0  0  0  0  0  0  0
   96.9400  -12.3430   33.0726 O   0  0  0  0  0  0  0  0  0  0  0  0
   99.3762  -14.7212   33.6345 C   0  0  2  0  0  0  0  0  0  0  0  0
   98.7248  -15.4379   32.5834 O   0  0  0  0  0  0  0  0  0  0  0  0
  100.0093  -15.7240   34.5944 C   0  0  0  0  0  0  0  0  0  0  0  0
   99.1278  -11.6549   33.2358 N   0  0  0  0  0  0  0  0  0  0  0  0
   99.0189  -10.3560   32.5907 C   0  0  2  0  0  0  0  0  0  0  0  0
   99.8653   -9.2698   33.2932 C   0  0  0  0  0  0  0  0  0  0  0  0
  100.7303   -8.5968   32.7500 O   0  0  0  0  0  0  0  0  0  0  0  0
   97.5929   -9.8650   32.2754 C   0  0  0  0  0  0  0  0  0  0  0  0
   97.1638  -10.2419   30.8507 C   0  0  0  0  0  0  0  0  0  0  0  0
   95.9122   -9.5197   30.3331 C   0  0  0  0  0  0  0  0  0  0  0  0
   95.4665   -9.9476   28.9421 C   0  0  0  0  0  0  0  0  0  0  0  0
   93.9924  -10.0406   28.9041 N   0  0  0  0  0  4  0  0  0  0  0  0
   99.5000   -9.0712   34.6150 N   0  0  0  0  0  0  0  0  0  0  0  0
  100.2736   -8.2358   35.5406 C   0  0  2  0  0  0  0  0  0  0  0  0
  101.7759   -8.6274   35.6164 C   0  0  0  0  0  0  0  0  0  0  0  0
  102.2238   -9.4145   36.4523 O   0  0  0  0  0  0  0  0  0  0  0  0
   99.5774   -8.0457   36.8963 C   0  0  0  0  0  0  0  0  0  0  0  0
  100.4178   -7.4076   38.0109 C   0  0  0  0  0  0  0  0  0  0  0  0
  100.1767   -8.0089   39.3803 C   0  0  0  0  0  0  0  0  0  0  0  0
  101.0431   -8.1456   40.2400 O   0  0  0  0  0  0  0  0  0  0  0  0
   98.8951   -8.4253   39.6132 N   0  0  0  0  0  0  0  0  0  0  0  0
  102.6233   -7.8630   34.8423 N   0  0  0  0  0  0  0  0  0  0  0  0
  104.0744   -8.1437   34.8515 C   0  0  2  0  0  0  0  0  0  0  0  0
  104.8799   -7.1239   35.6863 C   0  0  0  0  0  0  0  0  0  0  0  0
  105.1518   -7.3150   36.8649 O   0  0  0  0  0  0  0  0  0  0  0  0
  104.6254   -8.1387   33.4020 C   0  0  2  0  0  0  0  0  0  0  0  0
  104.4440   -6.8229   32.8282 O   0  0  0  0  0  0  0  0  0  0  0  0
  103.9372   -9.1975   32.5511 C   0  0  0  0  0  0  0  0  0  0  0  0
  105.3481   -6.0501   34.9590 N   0  0  0  0  0  0  0  0  0  0  0  0
  106.2661   -5.0425   35.4801 C   0  0  2  0  0  0  0  0  0  0  0  0
  105.3362   -3.9099   35.9595 C   0  0  0  0  0  0  0  0  0  0  0  0
  105.7548   -2.8146   36.3489 O   0  0  0  0  0  0  0  0  0  0  0  0
  107.3204   -4.5384   34.4982 C   0  0  0  0  0  0  0  0  0  0  0  0
  104.0148   -4.2751   36.1364 N   0  0  0  0  0  0  0  0  0  0  0  0
  102.9750   -3.3510   36.5837 C   0  0  2  0  0  0  0  0  0  0  0  0
  101.6080   -4.0494   36.7675 C   0  0  0  0  0  0  0  0  0  0  0  0
  100.5687   -3.4354   36.9953 O   0  0  0  0  0  0  0  0  0  0  0  0
  102.8801   -2.1000   35.6983 C   0  0  0  0  0  0  0  0  0  0  0  0
  101.4976   -1.7451   35.1386 C   0  0  0  0  0  0  0  0  0  0  0  0
  101.4164   -1.5701   33.6215 C   0  0  0  0  0  0  0  0  0  0  0  0
  100.0344   -1.2916   33.2571 N   0  0  0  0  0  0  0  0  0  0  0  0
   99.6332   -0.9458   32.0121 C   0  0  0  0  0  0  0  0  0  0  0  0
   99.7300   -1.6299   30.9291 N   0  0  0  0  0  0  0  0  0  0  0  0
   99.0446    0.2608   32.0160 N   0  0  0  0  0  0  0  0  0  0  0  0
  101.6552   -5.4252   36.7624 N   0  0  0  0  0  0  0  0  0  0  0  0
  101.3478   -6.2726   37.9206 C   0  0  2  0  0  0  0  0  0  0  0  0
  101.4479   -5.5981   39.3111 C   0  0  0  0  0  0  0  0  0  0  0  0
  102.1144   -4.5727   39.4601 O   0  0  0  0  0  0  0  0  0  0  0  0
  102.0877   -7.6226   37.8667 C   0  0  0  0  0  0  0  0  0  0  0  0
  101.2059   -8.7670   38.3963 C   0  0  0  0  0  0  0  0  0  0  0  0
  101.9292  -10.1163   38.3885 C   0  0  0  0  0  0  0  0  0  0  0  0
  103.0389  -10.2471   39.4331 C   0  0  0  0  0  0  0  0  0  0  0  0
  103.8284  -11.4771   39.2466 N   0  0  0  0  0  4  0  0  0  0  0  0
  100.7198   -6.1715   40.3212 N   0  0  0  0  0  0  0  0  0  0  0  0
   99.2839   -6.5055   40.2681 C   0  0  2  0  0  0  0  0  0  0  0  0
   98.4399   -5.2155   40.1736 C   0  0  0  0  0  0  0  0  0  0  0  0
   97.7227   -4.9733   39.2058 O   0  0  0  0  0  0  0  0  0  0  0  0
   98.7654   -7.4244   41.3827 C   0  0  0  0  0  0  0  0  0  0  0  0
   99.8157   -7.7708   42.3004 O   0  0  0  0  0  0  0  0  0  0  0  0
   98.5668   -4.3640   41.2597 N   0  0  0  0  0  0  0  0  0  0  0  0
   97.6961   -3.1691   41.3255 C   0  0  2  0  0  0  0  0  0  0  0  0
   98.1174   -2.0284   40.3815 C   0  0  0  0  0  0  0  0  0  0  0  0
   97.3833   -1.0668   40.1677 O   0  0  0  0  0  0  0  0  0  0  0  0
   97.7122   -2.6044   42.7735 C   0  0  2  0  0  0  0  0  0  0  0  0
   99.0787   -2.4162   43.1931 O   0  0  0  0  0  0  0  0  0  0  0  0
   97.0042   -3.5347   43.7496 C   0  0  0  0  0  0  0  0  0  0  0  0
   99.4381   -2.0400   39.9866 N   0  0  0  0  0  0  0  0  0  0  0  0
   99.9454   -1.0606   39.0342 C   0  0  0  0  0  0  0  0  0  0  0  0
   98.9868    0.1135   38.8272 C   0  0  0  0  0  0  0  0  0  0  0  0
   97.9391    0.0005   38.1951 O   0  0  0  0  0  0  0  0  0  0  0  0
   99.4207    1.3121   39.3391 N   0  0  0  0  0  0  0  0  0  0  0  0
   99.5345    1.5016   40.7817 C   0  0  0  0  0  0  0  0  0  0  0  0
   99.8832    2.9643   41.0592 C   0  0  0  0  0  0  0  0  0  0  0  0
  100.0404    3.4080   42.1968 O   0  0  0  0  0  0  0  0  0  0  0  0
   99.9816    3.7897   39.9534 N   0  0  0  0  0  0  0  0  0  0  0  0
  100.7867    5.0181   40.0038 C   0  0  1  0  0  0  0  0  0  0  0  0
  100.7618    5.7617   38.6602 C   0  0  0  0  0  0  0  0  0  0  0  0
  101.5202    5.0142   37.5441 C   0  0  0  0  0  0  0  0  0  0  0  0
  101.2428    3.5156   37.5156 C   0  0  0  0  0  0  0  0  0  0  0  0
  100.3126    3.0968   36.3873 C   0  0  0  0  0  0  0  0  0  0  0  0
  101.0037    2.1414   35.5319 N   0  0  0  0  0  0  0  0  0  0  0  0
  101.7547    1.1269   36.0609 C   0  0  0  0  0  0  0  0  0  0  0  0
  101.3039    0.2228   36.7528 O   0  0  0  0  0  0  0  0  0  0  0  0
  103.1955    1.2344   35.7218 C   0  0  0  0  0  0  0  0  0  0  0  0
  103.8669    0.1469   35.3140 C   0  0  0  0  0  0  0  0  0  0  0  0
  103.9561   -0.3156   33.8981 C   0  0  0  0  0  0  0  0  0  0  0  0
  100.3268    5.9165   41.1969 C   0  0  0  0  0  0  0  0  0  0  0  0
   99.7552    5.4990   42.2052 O   0  0  0  0  0  0  0  0  0  0  0  0
  100.4841    7.2632   40.9473 N   0  0  0  0  0  0  0  0  0  0  0  0
  100.3371    8.2722   41.9747 C   0  0  2  0  0  0  0  0  0  0  0  0
  100.5223    9.7107   41.4393 C   0  0  0  0  0  0  0  0  0  0  0  0
  101.4057   10.4218   41.9342 O   0  0  0  0  0  0  0  0  0  0  0  0
  101.2218    7.9698   43.1597 C   0  0  0  0  0  0  0  0  0  0  0  0
   99.7253   10.1962   40.4250 N   0  0  0  0  0  0  0  0  0  0  0  0
   99.9414   11.5548   39.9159 C   0  0  2  0  0  0  0  0  0  0  0  0
   99.3114   12.6323   40.8202 C   0  0  0  0  0  0  0  0  0  0  0  0
   99.8631   13.5649   41.3852 O   0  0  0  0  0  0  0  0  0  0  0  0
   99.3052   11.5314   38.5220 C   0  0  0  0  0  0  0  0  0  0  0  0
   98.1733   10.5247   38.6803 C   0  0  0  0  0  0  0  0  0  0  0  0
   98.8228    9.4580   39.5478 C   0  0  0  0  0  0  0  0  0  0  0  0
   97.9697   12.5066   40.8982 O   0  0  0  0  0  0  0  0  0  0  0  0
   92.7999  -20.2527   32.3903 H   0  0  0  0  0  0  0  0  0  0  0  0
  100.3535   -2.4198   31.1154 H   0  0  0  0  0  0  0  0  0  0  0  0
  1  2  1  0
  2  3  1  0
  2  5  1  1
  3  4  2  0
  3  6  1  0
  6  7  1  0
  7  8  1  0
  7 10  1  6
  8  9  2  0
  8 17  1  0
 10 11  1  0
 11 12  1  0
 12 13  1  0
 13 14  1  0
 14 15  2  0
 14 16  1  0
 18 17  1  6
 18 19  1  0
 18 21  1  0
 19 20  2  0
 19 24  1  0
 21 22  1  0
 21 23  1  1
 24 25  1  0
 25 26  1  0
 25 28  1  1
 26 27  2  0
 26 33  1  0
 28 29  1  0
 29 30  1  0
 30 31  1  0
 31 32  1  0
 33 34  1  0
 34 35  1  0
 34 37  1  1
 35 36  2  0
 35 42  1  0
 37 38  1  0
 38 39  1  0
 39 40  2  0
 39 41  1  0
 43 42  1  6
 43 44  1  0
 43 46  1  0
 44 45  2  0
 44 49  1  0
 46 47  1  0
 46 48  1  6
 49 50  1  0
 50 51  1  0
 50 53  1  6
 51 52  2  0
 51 54  1  0
 54 55  1  0
 55 56  1  0
 55 58  1  6
 56 57  2  0
 56 65  1  0
 58 59  1  0
 59 60  1  0
 60 61  1  0
 61 62  1  0
 62 63  2  0
 62 64  1  0
 65 66  1  0
 66 67  1  0
 66 69  1  1
 67 68  2  0
 67 74  1  0
 69 70  1  0
 70 71  1  0
 71 72  1  0
 72 73  1  0
 74 75  1  0
 75 76  1  0
 75 78  1  1
 76 77  2  0
 76 80  1  0
 78 79  1  0
 81 80  1  1
 81 82  1  0
 81 84  1  0
 82 83  2  0
 82 87  1  0
 84 85  1  0
 84 86  1  1
 87 88  1  0
 88 89  1  0
 89 90  2  0
 89 91  1  0
 91 92  1  0
 92 93  1  0
 93 94  2  0
 93 95  1  0
 95 96  1  0
 96 97  1  6
 96107  1  0
 97 98  1  0
 98 99  1  0
 99100  1  0
100101  1  0
101102  1  0
102103  2  0
102104  1  0
104105  2  0
105106  1  0
107108  2  0
107109  1  0
109110  1  0
110111  1  0
110113  1  1
111112  2  0
111114  1  0
114115  1  0
114120  1  0
115116  1  1
115118  1  0
116117  2  0
116121  1  0
118119  1  0
119120  1  0
 15122  1  0
 63123  1  0
M  CHG  3   1   1  32   1  73   1
M  END
$$$$
