
     RDKit          3D

123123  0  0  0  0  0  0  0  0999 V2000
  106.7936  -14.9955   31.3734 N   0  0  0  0  0  4  0  0  0  0  0  0
  105.6422  -14.2617   32.0046 C   0  0  2  0  0  0  0  0  0  0  0  0
  105.3453  -14.8689   33.3849 C   0  0  0  0  0  0  0  0  0  0  0  0
  106.2397  -15.4366   34.0127 O   0  0  0  0  0  0  0  0  0  0  0  0
  104.4408  -14.3933   31.0805 C   0  0  0  0  0  0  0  0  0  0  0  0
  104.0518  -14.7406   33.8224 N   0  0  0  0  0  0  0  0  0  0  0  0
  103.6719  -14.7073   35.2359 C   0  0  2  0  0  0  0  0  0  0  0  0
  102.3791  -13.8731   35.4493 C   0  0  0  0  0  0  0  0  0  0  0  0
  102.3284  -12.6877   35.1171 O   0  0  0  0  0  0  0  0  0  0  0  0
  104.8450  -14.3888   36.1795 C   0  0  0  0  0  0  0  0  0  0  0  0
  104.6960  -13.0486   36.9222 C   0  0  0  0  0  0  0  0  0  0  0  0
  105.6222  -12.9365   38.1328 C   0  0  0  0  0  0  0  0  0  0  0  0
  105.3226  -11.7385   38.8949 N   0  0  0  0  0  0  0  0  0  0  0  0
  104.2790  -11.7238   39.7543 C   0  0  0  0  0  0  0  0  0  0  0  0
  103.3582  -10.8219   39.7546 N   0  0  0  0  0  0  0  0  0  0  0  0
  104.2396  -12.7757   40.5903 N   0  0  0  0  0  0  0  0  0  0  0  0
  101.2779  -14.6062   35.8350 N   0  0  0  0  0  0  0  0  0  0  0  0
   99.8589  -14.2040   35.6786 C   0  0  2  0  0  0  0  0  0  0  0  0
   99.5204  -13.0151   36.6035 C   0  0  0  0  0  0  0  0  0  0  0  0
   99.8623  -13.0010   37.7835 O   0  0  0  0  0  0  0  0  0  0  0  0
   98.7786  -15.3038   35.7256 C   0  0  2  0  0  0  0  0  0  0  0  0
   98.9802  -16.2557   36.7725 O   0  0  0  0  0  0  0  0  0  0  0  0
   98.6664  -16.0487   34.3988 C   0  0  0  0  0  0  0  0  0  0  0  0
   98.8391  -11.9898   35.9899 N   0  0  0  0  0  0  0  0  0  0  0  0
   97.7064  -11.2704   36.5509 C   0  0  2  0  0  0  0  0  0  0  0  0
   97.0448  -10.3146   35.5320 C   0  0  0  0  0  0  0  0  0  0  0  0
   97.6445   -9.6862   34.6707 O   0  0  0  0  0  0  0  0  0  0  0  0
   97.9326  -10.5942   37.9167 C   0  0  0  0  0  0  0  0  0  0  0  0
   99.4229  -10.3479   38.1894 C   0  0  0  0  0  0  0  0  0  0  0  0
  100.1153   -9.3874   37.2126 C   0  0  0  0  0  0  0  0  0  0  0  0
  101.5605   -9.0635   37.5638 C   0  0  0  0  0  0  0  0  0  0  0  0
  101.7275   -7.5986   37.6599 N   0  0  0  0  0  4  0  0  0  0  0  0
   95.6636  -10.2836   35.6383 N   0  0  0  0  0  0  0  0  0  0  0  0
   94.8253   -9.3443   34.8845 C   0  0  2  0  0  0  0  0  0  0  0  0
   95.4934   -7.9576   34.6684 C   0  0  0  0  0  0  0  0  0  0  0  0
   95.7892   -7.2024   35.5963 O   0  0  0  0  0  0  0  0  0  0  0  0
   93.3756   -9.3009   35.3897 C   0  0  0  0  0  0  0  0  0  0  0  0
   92.4215   -8.3580   34.6439 C   0  0  0  0  0  0  0  0  0  0  0  0
   90.9810   -8.4560   35.1025 C   0  0  0  0  0  0  0  0  0  0  0  0
   90.0580   -7.7937   34.6358 O   0  0  0  0  0  0  0  0  0  0  0  0
   90.7548   -9.3441   36.1176 N   0  0  0  0  0  0  0  0  0  0  0  0
   95.5240   -7.5160   33.3624 N   0  0  0  0  0  0  0  0  0  0  0  0
   96.0214   -6.1570   33.0618 C   0  0  2  0  0  0  0  0  0  0  0  0
   94.9788   -5.0556   33.3545 C   0  0  0  0  0  0  0  0  0  0  0  0
   93.7738   -5.2634   33.2884 O   0  0  0  0  0  0  0  0  0  0  0  0
   96.4345   -6.0606   31.5702 C   0  0  2  0  0  0  0  0  0  0  0  0
   96.1252   -7.3098   30.9088 O   0  0  0  0  0  0  0  0  0  0  0  0
   97.9144   -5.7295   31.4323 C   0  0  0  0  0  0  0  0  0  0  0  0
   95.5261   -3.8696   33.7962 N   0  0  0  0  0  0  0  0  0  0  0  0
   94.8546   -2.9413   34.7001 C   0  0  2  0  0  0  0  0  0  0  0  0
   95.9903   -2.0239   35.1961 C   0  0  0  0  0  0  0  0  0  0  0  0
   96.8797   -1.5928   34.4548 O   0  0  0  0  0  0  0  0  0  0  0  0
   94.0913   -3.5812   35.8568 C   0  0  0  0  0  0  0  0  0  0  0  0
   96.0774   -1.8932   36.5694 N   0  0  0  0  0  0  0  0  0  0  0  0
   95.8473   -0.6354   37.2767 C   0  0  2  0  0  0  0  0  0  0  0  0
   96.0403   -0.7767   38.8041 C   0  0  0  0  0  0  0  0  0  0  0  0
   96.2864    0.1772   39.5380 O   0  0  0  0  0  0  0  0  0  0  0  0
   94.5004    0.0058   36.9125 C   0  0  0  0  0  0  0  0  0  0  0  0
   94.1718    1.3547   37.5626 C   0  0  0  0  0  0  0  0  0  0  0  0
   94.3970    2.5895   36.6889 C   0  0  0  0  0  0  0  0  0  0  0  0
   93.1750    3.3811   36.6755 N   0  0  0  0  0  0  0  0  0  0  0  0
   92.3406    3.4703   35.6143 C   0  0  0  0  0  0  0  0  0  0  0  0
   92.6144    3.2869   34.3726 N   0  0  0  0  0  0  0  0  0  0  0  0
   91.0902    3.7566   36.0103 N   0  0  0  0  0  0  0  0  0  0  0  0
   96.0208   -2.0708   39.2732 N   0  0  0  0  0  0  0  0  0  0  0  0
   97.0585   -2.6626   40.1256 C   0  0  2  0  0  0  0  0  0  0  0  0
   98.1487   -3.4931   39.4043 C   0  0  0  0  0  0  0  0  0  0  0  0
   98.3052   -4.6849   39.6746 O   0  0  0  0  0  0  0  0  0  0  0  0
   96.4635   -3.4005   41.3397 C   0  0  0  0  0  0  0  0  0  0  0  0
   97.5656   -4.0365   42.2050 C   0  0  0  0  0  0  0  0  0  0  0  0
   98.0315   -3.1127   43.3334 C   0  0  0  0  0  0  0  0  0  0  0  0
   97.7282   -3.6284   44.7411 C   0  0  0  0  0  0  0  0  0  0  0  0
   96.3157   -3.4267   45.1090 N   0  0  0  0  0  4  0  0  0  0  0  0
   98.8674   -2.8445   38.4337 N   0  0  0  0  0  0  0  0  0  0  0  0
   99.9104   -3.4484   37.5832 C   0  0  2  0  0  0  0  0  0  0  0  0
  100.6025   -2.3593   36.7344 C   0  0  0  0  0  0  0  0  0  0  0  0
  101.7966   -2.4129   36.4503 O   0  0  0  0  0  0  0  0  0  0  0  0
   99.4657   -4.6297   36.7101 C   0  0  0  0  0  0  0  0  0  0  0  0
   99.0984   -4.1913   35.3916 O   0  0  0  0  0  0  0  0  0  0  0  0
   99.7695   -1.3271   36.3328 N   0  0  0  0  0  0  0  0  0  0  0  0
  100.3688   -0.1660   35.6378 C   0  0  2  0  0  0  0  0  0  0  0  0
  101.5677    0.4599   36.3732 C   0  0  0  0  0  0  0  0  0  0  0  0
  102.3200    1.2549   35.8154 O   0  0  0  0  0  0  0  0  0  0  0  0
   99.2924    0.9433   35.4749 C   0  0  2  0  0  0  0  0  0  0  0  0
   98.7932    1.3134   36.7760 O   0  0  0  0  0  0  0  0  0  0  0  0
   98.1351    0.4819   34.5989 C   0  0  0  0  0  0  0  0  0  0  0  0
  101.6016    0.2567   37.7363 N   0  0  0  0  0  0  0  0  0  0  0  0
  102.8599    0.2973   38.4701 C   0  0  0  0  0  0  0  0  0  0  0  0
  103.9012    1.2013   37.8076 C   0  0  0  0  0  0  0  0  0  0  0  0
  104.6010    0.8190   36.8727 O   0  0  0  0  0  0  0  0  0  0  0  0
  104.0408    2.4410   38.3823 N   0  0  0  0  0  0  0  0  0  0  0  0
  103.7026    3.6459   37.6314 C   0  0  0  0  0  0  0  0  0  0  0  0
  102.6385    4.4249   38.4053 C   0  0  0  0  0  0  0  0  0  0  0  0
  102.6741    5.6482   38.5401 O   0  0  0  0  0  0  0  0  0  0  0  0
  101.6336    3.6735   38.9878 N   0  0  0  0  0  0  0  0  0  0  0  0
  100.5672    4.3211   39.7643 C   0  0  1  0  0  0  0  0  0  0  0  0
  101.1224    5.4422   40.6553 C   0  0  0  0  0  0  0  0  0  0  0  0
  100.7104    5.2954   42.1346 C   0  0  0  0  0  0  0  0  0  0  0  0
  101.3597    4.1068   42.8340 C   0  0  0  0  0  0  0  0  0  0  0  0
  100.4218    3.3843   43.7891 C   0  0  0  0  0  0  0  0  0  0  0  0
  100.5488    1.9477   43.5834 N   0  0  0  0  0  0  0  0  0  0  0  0
  101.7536    1.3134   43.7219 C   0  0  0  0  0  0  0  0  0  0  0  0
  102.1889    0.8822   44.7821 O   0  0  0  0  0  0  0  0  0  0  0  0
  102.5028    1.2067   42.4453 C   0  0  0  0  0  0  0  0  0  0  0  0
  103.6837    0.5708   42.4170 C   0  0  0  0  0  0  0  0  0  0  0  0
  104.4223    0.2045   41.1732 C   0  0  0  0  0  0  0  0  0  0  0  0
   99.4310    4.8166   38.8125 C   0  0  0  0  0  0  0  0  0  0  0  0
   98.2266    4.7137   39.0505 O   0  0  0  0  0  0  0  0  0  0  0  0
   99.9032    5.2492   37.5916 N   0  0  0  0  0  0  0  0  0  0  0  0
   99.0422    5.8162   36.5755 C   0  0  2  0  0  0  0  0  0  0  0  0
   98.2039    4.7515   35.8313 C   0  0  0  0  0  0  0  0  0  0  0  0
   97.8173    3.7549   36.4545 O   0  0  0  0  0  0  0  0  0  0  0  0
   99.8241    6.7054   35.6394 C   0  0  0  0  0  0  0  0  0  0  0  0
   97.8846    4.9065   34.4995 N   0  0  0  0  0  0  0  0  0  0  0  0
   97.2682    3.7967   33.7646 C   0  0  2  0  0  0  0  0  0  0  0  0
   98.2977    2.7419   33.3137 C   0  0  0  0  0  0  0  0  0  0  0  0
   98.3880    1.5739   33.6613 O   0  0  0  0  0  0  0  0  0  0  0  0
   96.5851    4.4778   32.5739 C   0  0  0  0  0  0  0  0  0  0  0  0
   97.4803    5.6812   32.3094 C   0  0  0  0  0  0  0  0  0  0  0  0
   97.8146    6.1383   33.7206 C   0  0  0  0  0  0  0  0  0  0  0  0
   99.1309    3.2205   32.3656 O   0  0  0  0  0  0  0  0  0  0  0  0
  103.7590   -9.9737   39.3206 H   0  0  0  0  0  0  0  0  0  0  0  0
   92.8482    4.1976   33.9683 H   0  0  0  0  0  0  0  0  0  0  0  0
  1  2  1  0
  2  3  1  0
  2  5  1  6
  3  4  2  0
  3  6  1  0
  6  7  1  0
  7  8  1  0
  7 10  1  1
  8  9  2  0
  8 17  1  0
 10 11  1  0
 11 12  1  0
 12 13  1  0
 13 14  1  0
 14 15  2  0
 14 16  1  0
 18 17  1  1
 18 19  1  0
 18 21  1  0
 19 20  2  0
 19 24  1  0
 21 22  1  0
 21 23  1  6
 24 25  1  0
 25 26  1  0
 25 28  1  1
 26 27  2  0
 26 33  1  0
 28 29  1  0
 29 30  1  0
 30 31  1  0
 31 32  1  0
 33 34  1  0
 34 35  1  0
 34 37  1  1
 35 36  2  0
 35 42  1  0
 37 38  1  0
 38 39  1  0
 39 40  2  0
 39 41  1  0
 43 42  1  6
 43 44  1  0
 43 46  1  0
 44 45  2  0
 44 49  1  0
 46 47  1  0
 46 48  1  1
 49 50  1  0
 50 51  1  0
 50 53  1  1
 51 52  2  0
 51 54  1  0
 54 55  1  0
 55 56  1  0
 55 58  1  1
 56 57  2  0
 56 65  1  0
 58 59  1  0
 59 60  1  0
 60 61  1  0
 61 62  1  0
 62 63  2  0
 62 64  1  0
 65 66  1  0
 66 67  1  0
 66 69  1  1
 67 68  2  0
 67 74  1  0
 69 70  1  0
 70 71  1  0
 71 72  1  0
 72 73  1  0
 74 75  1  0
 75 76  1  0
 75 78  1  6
 76 77  2  0
 76 80  1  0
 78 79  1  0
 81 80  1  1
 81 82  1  0
 81 84  1  0
 82 83  2  0
 82 87  1  0
 84 85  1  0
 84 86  1  6
 87 88  1  0
 88 89  1  0
 89 90  2  0
 89 91  1  0
 91 92  1  0
 92 93  1  0
 93 94  2  0
 93 95  1  0
 95 96  1  0
 96 97  1  6
 96107  1  0
 97 98  1  0
 98 99  1  0
 99100  1  0
100101  1  0
101102  1  0
102103  2  0
102104  1  0
104105  2  0
105106  1  0
107108  2  0
107109  1  0
109110  1  0
110111  1  0
110113  1  6
111112  2  0
111114  1  0
114115  1  0
114120  1  0
115116  1  6
115118  1  0
116117  2  0
116121  1  0
118119  1  0
119120  1  0
 15122  1  0
 63123  1  0
M  CHG  3   1   1  32   1  73   1
M  END
$$$$
