
     RDKit          3D

123123  0  0  0  0  0  0  0  0999 V2000
  105.7769  -10.5673   35.1086 N   0  0  0  0  0  4  0  0  0  0  0  0
  104.7679  -10.2881   36.1888 C   0  0  2  0  0  0  0  0  0  0  0  0
  103.3905  -10.0482   35.5508 C   0  0  0  0  0  0  0  0  0  0  0  0
  103.1864   -9.0276   34.8928 O   0  0  0  0  0  0  0  0  0  0  0  0
  105.2342   -9.0614   36.9585 C   0  0  0  0  0  0  0  0  0  0  0  0
  102.4519  -11.0204   35.7852 N   0  0  0  0  0  0  0  0  0  0  0  0
  101.0631  -10.7372   36.1519 C   0  0  2  0  0  0  0  0  0  0  0  0
  100.8516   -9.2216   36.4186 C   0  0  0  0  0  0  0  0  0  0  0  0
  101.8111   -8.4718   36.6059 O   0  0  0  0  0  0  0  0  0  0  0  0
  100.5019  -11.6955   37.2172 C   0  0  0  0  0  0  0  0  0  0  0  0
   99.9800  -13.0244   36.6411 C   0  0  0  0  0  0  0  0  0  0  0  0
  100.4604  -14.2413   37.4313 C   0  0  0  0  0  0  0  0  0  0  0  0
   99.7690  -15.4394   36.9928 N   0  0  0  0  0  0  0  0  0  0  0  0
  100.4636  -16.5735   36.7493 C   0  0  0  0  0  0  0  0  0  0  0  0
  101.7180  -16.7196   37.0064 N   0  0  0  0  0  0  0  0  0  0  0  0
   99.7190  -17.5809   36.2619 N   0  0  0  0  0  0  0  0  0  0  0  0
   99.5611   -8.7779   36.2270 N   0  0  0  0  0  0  0  0  0  0  0  0
   99.0753   -7.3890   36.4136 C   0  0  2  0  0  0  0  0  0  0  0  0
   98.4955   -7.1964   37.8314 C   0  0  0  0  0  0  0  0  0  0  0  0
   97.3000   -7.3581   38.0645 O   0  0  0  0  0  0  0  0  0  0  0  0
   98.1669   -6.7806   35.3258 C   0  0  2  0  0  0  0  0  0  0  0  0
   97.1964   -7.6977   34.8161 O   0  0  0  0  0  0  0  0  0  0  0  0
   98.9737   -6.2195   34.1587 C   0  0  0  0  0  0  0  0  0  0  0  0
   99.4248   -6.8594   38.7879 N   0  0  0  0  0  0  0  0  0  0  0  0
   99.2012   -6.8639   40.2249 C   0  0  2  0  0  0  0  0  0  0  0  0
  100.4257   -6.3545   41.0192 C   0  0  0  0  0  0  0  0  0  0  0  0
  100.6025   -6.5252   42.2175 O   0  0  0  0  0  0  0  0  0  0  0  0
   98.6206   -8.1593   40.8239 C   0  0  0  0  0  0  0  0  0  0  0  0
   97.2244   -7.9339   41.4203 C   0  0  0  0  0  0  0  0  0  0  0  0
   96.9467   -8.6800   42.7327 C   0  0  0  0  0  0  0  0  0  0  0  0
   97.3029   -7.8995   43.9900 C   0  0  0  0  0  0  0  0  0  0  0  0
   96.1696   -7.9467   44.9367 N   0  0  0  0  0  4  0  0  0  0  0  0
  101.3671   -5.7284   40.2181 N   0  0  0  0  0  0  0  0  0  0  0  0
  102.8088   -5.9724   40.3400 C   0  0  2  0  0  0  0  0  0  0  0  0
  103.5399   -6.0473   38.9704 C   0  0  0  0  0  0  0  0  0  0  0  0
  104.6001   -5.4619   38.7417 O   0  0  0  0  0  0  0  0  0  0  0  0
  103.1410   -7.1054   41.3222 C   0  0  0  0  0  0  0  0  0  0  0  0
  103.3258   -6.7019   42.7915 C   0  0  0  0  0  0  0  0  0  0  0  0
  104.7750   -6.5731   43.2136 C   0  0  0  0  0  0  0  0  0  0  0  0
  105.1432   -6.2462   44.3388 O   0  0  0  0  0  0  0  0  0  0  0  0
  105.6903   -6.8332   42.2313 N   0  0  0  0  0  0  0  0  0  0  0  0
  102.8141   -6.6179   37.9461 N   0  0  0  0  0  0  0  0  0  0  0  0
  103.5143   -7.1163   36.7436 C   0  0  2  0  0  0  0  0  0  0  0  0
  103.6812   -6.0357   35.6526 C   0  0  0  0  0  0  0  0  0  0  0  0
  104.7489   -5.8401   35.0857 O   0  0  0  0  0  0  0  0  0  0  0  0
  102.7393   -8.3142   36.1362 C   0  0  2  0  0  0  0  0  0  0  0  0
  101.9222   -7.8452   35.0380 O   0  0  0  0  0  0  0  0  0  0  0  0
  101.8825   -9.0029   37.1899 C   0  0  0  0  0  0  0  0  0  0  0  0
  102.5065   -5.4011   35.3085 N   0  0  0  0  0  0  0  0  0  0  0  0
  102.4380   -4.1148   34.6225 C   0  0  2  0  0  0  0  0  0  0  0  0
  102.8036   -3.0933   35.7180 C   0  0  0  0  0  0  0  0  0  0  0  0
  103.5086   -3.3749   36.6928 O   0  0  0  0  0  0  0  0  0  0  0  0
  101.1013   -3.7891   33.9613 C   0  0  0  0  0  0  0  0  0  0  0  0
  102.1097   -1.8994   35.6577 N   0  0  0  0  0  0  0  0  0  0  0  0
  102.4453   -0.8166   34.7355 C   0  0  2  0  0  0  0  0  0  0  0  0
  103.0439    0.4096   35.4624 C   0  0  0  0  0  0  0  0  0  0  0  0
  103.0219    0.5393   36.6837 O   0  0  0  0  0  0  0  0  0  0  0  0
  101.2719   -0.4402   33.8193 C   0  0  0  0  0  0  0  0  0  0  0  0
   99.9769    0.0204   34.4985 C   0  0  0  0  0  0  0  0  0  0  0  0
   99.0851    0.9503   33.6746 C   0  0  0  0  0  0  0  0  0  0  0  0
   97.9023    1.2778   34.4580 N   0  0  0  0  0  0  0  0  0  0  0  0
   96.6941    1.5678   33.9225 C   0  0  0  0  0  0  0  0  0  0  0  0
   96.2746    2.6973   33.4769 N   0  0  0  0  0  0  0  0  0  0  0  0
   95.9215    0.4716   33.8609 N   0  0  0  0  0  0  0  0  0  0  0  0
  103.5131    1.4028   34.6326 N   0  0  0  0  0  0  0  0  0  0  0  0
  104.1177    2.6573   35.0957 C   0  0  2  0  0  0  0  0  0  0  0  0
  103.1383    3.7509   35.5890 C   0  0  0  0  0  0  0  0  0  0  0  0
  103.5653    4.8318   35.9978 O   0  0  0  0  0  0  0  0  0  0  0  0
  105.1577    3.2045   34.0998 C   0  0  0  0  0  0  0  0  0  0  0  0
  104.9931    4.7204   33.8932 C   0  0  0  0  0  0  0  0  0  0  0  0
  104.9376    5.1078   32.4131 C   0  0  0  0  0  0  0  0  0  0  0  0
  104.7569    6.6047   32.1557 C   0  0  0  0  0  0  0  0  0  0  0  0
  105.2194    6.9920   30.8114 N   0  0  0  0  0  4  0  0  0  0  0  0
  101.8018    3.4629   35.4891 N   0  0  0  0  0  0  0  0  0  0  0  0
  100.6946    4.4055   35.7376 C   0  0  2  0  0  0  0  0  0  0  0  0
   99.3501    3.7704   35.3201 C   0  0  0  0  0  0  0  0  0  0  0  0
   98.9285    3.8315   34.1677 O   0  0  0  0  0  0  0  0  0  0  0  0
  100.8554    5.8065   35.1321 C   0  0  0  0  0  0  0  0  0  0  0  0
  101.1021    6.7879   36.1526 O   0  0  0  0  0  0  0  0  0  0  0  0
   98.6679    3.1395   36.3484 N   0  0  0  0  0  0  0  0  0  0  0  0
   97.4359    2.3876   36.0212 C   0  0  2  0  0  0  0  0  0  0  0  0
   96.7398    1.7555   37.2401 C   0  0  0  0  0  0  0  0  0  0  0  0
   95.5997    2.0759   37.5669 O   0  0  0  0  0  0  0  0  0  0  0  0
   97.7859    1.2368   35.0369 C   0  0  2  0  0  0  0  0  0  0  0  0
   98.8637    0.4537   35.5881 O   0  0  0  0  0  0  0  0  0  0  0  0
   98.1920    1.7687   33.6688 C   0  0  0  0  0  0  0  0  0  0  0  0
   97.3750    0.6608   37.7866 N   0  0  0  0  0  0  0  0  0  0  0  0
   96.6224   -0.5208   38.1878 C   0  0  0  0  0  0  0  0  0  0  0  0
   97.1042   -1.7935   37.4888 C   0  0  0  0  0  0  0  0  0  0  0  0
   97.3185   -1.8360   36.2797 O   0  0  0  0  0  0  0  0  0  0  0  0
   97.2092   -2.8957   38.3017 N   0  0  0  0  0  0  0  0  0  0  0  0
   96.0248   -3.6765   38.6446 C   0  0  0  0  0  0  0  0  0  0  0  0
   95.9148   -3.7597   40.1674 C   0  0  0  0  0  0  0  0  0  0  0  0
   96.7177   -4.3846   40.8607 O   0  0  0  0  0  0  0  0  0  0  0  0
   94.8309   -3.1170   40.7380 N   0  0  0  0  0  0  0  0  0  0  0  0
   94.2035   -3.6440   41.9580 C   0  0  1  0  0  0  0  0  0  0  0  0
   94.8977   -3.1133   43.2211 C   0  0  0  0  0  0  0  0  0  0  0  0
   93.9323   -2.9423   44.4120 C   0  0  0  0  0  0  0  0  0  0  0  0
   93.8990   -4.1446   45.3485 C   0  0  0  0  0  0  0  0  0  0  0  0
   94.6488   -3.9136   46.6516 C   0  0  0  0  0  0  0  0  0  0  0  0
   94.9143   -5.2001   47.2813 N   0  0  0  0  0  0  0  0  0  0  0  0
   95.2639   -5.2868   48.6017 C   0  0  0  0  0  0  0  0  0  0  0  0
   95.5346   -4.3244   49.3087 O   0  0  0  0  0  0  0  0  0  0  0  0
   95.2972   -6.6834   49.1022 C   0  0  0  0  0  0  0  0  0  0  0  0
   95.7285   -6.9349   50.3474 C   0  0  0  0  0  0  0  0  0  0  0  0
   95.7775   -8.2887   50.9728 C   0  0  0  0  0  0  0  0  0  0  0  0
   92.6688   -3.3493   41.9465 C   0  0  0  0  0  0  0  0  0  0  0  0
   91.8446   -3.9121   42.6688 O   0  0  0  0  0  0  0  0  0  0  0  0
   92.2929   -2.4968   40.9304 N   0  0  0  0  0  0  0  0  0  0  0  0
   91.9031   -2.9670   39.6180 C   0  0  2  0  0  0  0  0  0  0  0  0
   90.4642   -3.5312   39.5815 C   0  0  0  0  0  0  0  0  0  0  0  0
   90.2941   -4.7429   39.7655 O   0  0  0  0  0  0  0  0  0  0  0  0
   92.9244   -3.9306   39.0640 C   0  0  0  0  0  0  0  0  0  0  0  0
   89.3854   -2.7038   39.3545 N   0  0  0  0  0  0  0  0  0  0  0  0
   88.6639   -2.7813   38.0797 C   0  0  2  0  0  0  0  0  0  0  0  0
   89.3831   -2.0238   36.9462 C   0  0  0  0  0  0  0  0  0  0  0  0
   89.1787   -2.0879   35.7432 O   0  0  0  0  0  0  0  0  0  0  0  0
   87.2924   -2.1749   38.3953 C   0  0  0  0  0  0  0  0  0  0  0  0
   87.6116   -1.1553   39.4808 C   0  0  0  0  0  0  0  0  0  0  0  0
   88.6393   -1.9009   40.3175 C   0  0  0  0  0  0  0  0  0  0  0  0
   90.2944   -1.1485   37.4209 O   0  0  0  0  0  0  0  0  0  0  0  0
  102.0724  -15.8062   37.3359 H   0  0  0  0  0  0  0  0  0  0  0  0
   95.6235    3.0810   34.1670 H   0  0  0  0  0  0  0  0  0  0  0  0
  1  2  1  0
  2  3  1  0
  2  5  1  6
  3  4  2  0
  3  6  1  0
  6  7  1  0
  7  8  1  0
  7 10  1  1
  8  9  2  0
  8 17  1  0
 10 11  1  0
 11 12  1  0
 12 13  1  0
 13 14  1  0
 14 15  2  0
 14 16  1  0
 18 17  1  6
 18 19  1  0
 18 21  1  0
 19 20  2  0
 19 24  1  0
 21 22  1  0
 21 23  1  6
 24 25  1  0
 25 26  1  0
 25 28  1  1
 26 27  2  0
 26 33  1  0
 28 29  1  0
 29 30  1  0
 30 31  1  0
 31 32  1  0
 33 34  1  0
 34 35  1  0
 34 37  1  6
 35 36  2  0
 35 42  1  0
 37 38  1  0
 38 39  1  0
 39 40  2  0
 39 41  1  0
 43 42  1  1
 43 44  1  0
 43 46  1  0
 44 45  2  0
 44 49  1  0
 46 47  1  0
 46 48  1  1
 49 50  1  0
 50 51  1  0
 50 53  1  1
 51 52  2  0
 51 54  1  0
 54 55  1  0
 55 56  1  0
 55 58  1  1
 56 57  2  0
 56 65  1  0
 58 59  1  0
 59 60  1  0
 60 61  1  0
 61 62  1  0
 62 63  2  0
 62 64  1  0
 65 66  1  0
 66 67  1  0
 66 69  1  6
 67 68  2  0
 67 74  1  0
 69 70  1  0
 70 71  1  0
 71 72  1  0
 72 73  1  0
 74 75  1  0
 75 76  1  0
 75 78  1  6
 76 77  2  0
 76 80  1  0
 78 79  1  0
 81 80  1  1
 81 82  1  0
 81 84  1  0
 82 83  2  0
 82 87  1  0
 84 85  1  0
 84 86  1  6
 87 88  1  0
 88 89  1  0
 89 90  2  0
 89 91  1  0
 91 92  1  0
 92 93  1  0
 93 94  2  0
 93 95  1  0
 95 96  1  0
 96 97  1  1
 96107  1  0
 97 98  1  0
 98 99  1  0
 99100  1  0
100101  1  0
101102  1  0
102103  2  0
102104  1  0
104105  2  0
105106  1  0
107108  2  0
107109  1  0
109110  1  0
110111  1  0
110113  1  1
111112  2  0
111114  1  0
114115  1  0
114120  1  0
115116  1  6
115118  1  0
116117  2  0
116121  1  0
118119  1  0
119120  1  0
 15122  1  0
 63123  1  0
M  CHG  3   1   1  32   1  73   1
M  END
$$$$
