
     RDKit          3D

123123  0  0  0  0  0  0  0  0999 V2000
  102.3971   -0.5296   29.5409 N   0  0  0  0  0  4  0  0  0  0  0  0
  103.3299   -1.1505   30.5445 C   0  0  2  0  0  0  0  0  0  0  0  0
  102.8151   -0.8654   31.9642 C   0  0  0  0  0  0  0  0  0  0  0  0
  101.6042   -0.7983   32.1778 O   0  0  0  0  0  0  0  0  0  0  0  0
  104.7113   -0.5490   30.3336 C   0  0  0  0  0  0  0  0  0  0  0  0
  103.7823   -0.6848   32.9197 N   0  0  0  0  0  0  0  0  0  0  0  0
  103.5067   -0.6426   34.3568 C   0  0  2  0  0  0  0  0  0  0  0  0
  104.7662   -0.2108   35.1568 C   0  0  0  0  0  0  0  0  0  0  0  0
  105.5282   -1.0501   35.6394 O   0  0  0  0  0  0  0  0  0  0  0  0
  102.7701   -1.8893   34.8775 C   0  0  0  0  0  0  0  0  0  0  0  0
  101.2624   -1.8928   34.5661 C   0  0  0  0  0  0  0  0  0  0  0  0
  100.7754   -3.2314   34.0121 C   0  0  0  0  0  0  0  0  0  0  0  0
   99.3717   -3.1541   33.6525 N   0  0  0  0  0  0  0  0  0  0  0  0
   98.5048   -4.0926   34.0948 C   0  0  0  0  0  0  0  0  0  0  0  0
   98.4377   -4.4923   35.3182 N   0  0  0  0  0  0  0  0  0  0  0  0
   97.6583   -4.5467   33.1544 N   0  0  0  0  0  0  0  0  0  0  0  0
  105.0508    1.1362   35.0998 N   0  0  0  0  0  0  0  0  0  0  0  0
  105.5965    1.9640   36.2029 C   0  0  2  0  0  0  0  0  0  0  0  0
  104.6137    3.0938   36.5788 C   0  0  0  0  0  0  0  0  0  0  0  0
  104.9245    3.9783   37.3730 O   0  0  0  0  0  0  0  0  0  0  0  0
  107.0485    2.4707   36.0864 C   0  0  2  0  0  0  0  0  0  0  0  0
  108.0034    1.6113   36.7129 O   0  0  0  0  0  0  0  0  0  0  0  0
  107.2075    3.8782   36.6534 C   0  0  0  0  0  0  0  0  0  0  0  0
  103.3983    3.0305   35.9380 N   0  0  0  0  0  0  0  0  0  0  0  0
  102.3126    3.9870   36.0846 C   0  0  2  0  0  0  0  0  0  0  0  0
  101.3278    3.6013   37.2120 C   0  0  0  0  0  0  0  0  0  0  0  0
  100.4108    2.8001   37.0961 O   0  0  0  0  0  0  0  0  0  0  0  0
  101.5810    4.3965   34.7918 C   0  0  0  0  0  0  0  0  0  0  0  0
  100.2527    3.6450   34.6279 C   0  0  0  0  0  0  0  0  0  0  0  0
   99.5365    3.8694   33.2889 C   0  0  0  0  0  0  0  0  0  0  0  0
   98.2679    3.0484   33.1063 C   0  0  0  0  0  0  0  0  0  0  0  0
   97.7119    3.2938   31.7597 N   0  0  0  0  0  4  0  0  0  0  0  0
  101.6259    4.2090   38.4211 N   0  0  0  0  0  0  0  0  0  0  0  0
  100.6778    4.2705   39.5392 C   0  0  2  0  0  0  0  0  0  0  0  0
   99.9030    2.9421   39.7650 C   0  0  0  0  0  0  0  0  0  0  0  0
   98.6753    2.8601   39.6954 O   0  0  0  0  0  0  0  0  0  0  0  0
   99.8111    5.5382   39.5173 C   0  0  0  0  0  0  0  0  0  0  0  0
   99.8124    6.3426   38.2101 C   0  0  0  0  0  0  0  0  0  0  0  0
  100.9490    7.3387   38.1052 C   0  0  0  0  0  0  0  0  0  0  0  0
  101.5309    7.8310   39.0683 O   0  0  0  0  0  0  0  0  0  0  0  0
  101.2963    7.6899   36.8298 N   0  0  0  0  0  0  0  0  0  0  0  0
  100.6511    1.9045   40.2802 N   0  0  0  0  0  0  0  0  0  0  0  0
  100.0167    0.5893   40.5091 C   0  0  2  0  0  0  0  0  0  0  0  0
  100.9652   -0.4284   41.1801 C   0  0  0  0  0  0  0  0  0  0  0  0
  102.0641   -0.1079   41.6152 O   0  0  0  0  0  0  0  0  0  0  0  0
   99.5280   -0.0058   39.1631 C   0  0  2  0  0  0  0  0  0  0  0  0
   98.7559    0.9914   38.4539 O   0  0  0  0  0  0  0  0  0  0  0  0
   98.7034   -1.2659   39.3889 C   0  0  0  0  0  0  0  0  0  0  0  0
  100.4184   -1.6844   41.3373 N   0  0  0  0  0  0  0  0  0  0  0  0
  100.8833   -2.6669   42.3111 C   0  0  2  0  0  0  0  0  0  0  0  0
  100.3686   -4.0094   41.7542 C   0  0  0  0  0  0  0  0  0  0  0  0
  100.7289   -4.4689   40.6654 O   0  0  0  0  0  0  0  0  0  0  0  0
  100.4317   -2.4351   43.7506 C   0  0  0  0  0  0  0  0  0  0  0  0
   99.3083   -4.5611   42.4484 N   0  0  0  0  0  0  0  0  0  0  0  0
   98.0256   -4.8932   41.8323 C   0  0  2  0  0  0  0  0  0  0  0  0
   98.1883   -5.4391   40.3949 C   0  0  0  0  0  0  0  0  0  0  0  0
   98.1810   -6.6386   40.1305 O   0  0  0  0  0  0  0  0  0  0  0  0
   97.0193   -3.7360   41.9098 C   0  0  0  0  0  0  0  0  0  0  0  0
   96.0655   -3.7206   43.1100 C   0  0  0  0  0  0  0  0  0  0  0  0
   96.6514   -3.1963   44.4217 C   0  0  0  0  0  0  0  0  0  0  0  0
   95.6331   -3.2898   45.4583 N   0  0  0  0  0  0  0  0  0  0  0  0
   95.3679   -4.4146   46.1618 C   0  0  0  0  0  0  0  0  0  0  0  0
   96.1711   -5.3723   46.4586 N   0  0  0  0  0  0  0  0  0  0  0  0
   94.0946   -4.4249   46.5872 N   0  0  0  0  0  0  0  0  0  0  0  0
   98.4489   -4.4838   39.4386 N   0  0  0  0  0  0  0  0  0  0  0  0
   98.7160   -4.7730   38.0248 C   0  0  2  0  0  0  0  0  0  0  0  0
  100.1693   -5.1722   37.6680 C   0  0  0  0  0  0  0  0  0  0  0  0
  100.7479   -4.6376   36.7208 O   0  0  0  0  0  0  0  0  0  0  0  0
   98.1599   -3.6806   37.0921 C   0  0  0  0  0  0  0  0  0  0  0  0
   98.3721   -4.0450   35.6123 C   0  0  0  0  0  0  0  0  0  0  0  0
   99.5301   -3.2702   34.9778 C   0  0  0  0  0  0  0  0  0  0  0  0
   99.2377   -2.7258   33.5786 C   0  0  0  0  0  0  0  0  0  0  0  0
  100.3916   -2.0016   33.0173 N   0  0  0  0  0  4  0  0  0  0  0  0
  100.7683   -6.0922   38.4889 N   0  0  0  0  0  0  0  0  0  0  0  0
  102.1919   -6.4776   38.4598 C   0  0  2  0  0  0  0  0  0  0  0  0
  102.4986   -7.4707   39.6023 C   0  0  0  0  0  0  0  0  0  0  0  0
  103.6437   -7.8286   39.8672 O   0  0  0  0  0  0  0  0  0  0  0  0
  103.2015   -5.3217   38.4467 C   0  0  0  0  0  0  0  0  0  0  0  0
  103.0391   -4.5040   37.2762 O   0  0  0  0  0  0  0  0  0  0  0  0
  101.3818   -7.9210   40.2884 N   0  0  0  0  0  0  0  0  0  0  0  0
  101.5830   -8.7414   41.5035 C   0  0  2  0  0  0  0  0  0  0  0  0
  100.5954   -9.9139   41.6442 C   0  0  0  0  0  0  0  0  0  0  0  0
   99.8580  -10.0195   42.6212 O   0  0  0  0  0  0  0  0  0  0  0  0
  101.4191   -7.8418   42.7603 C   0  0  2  0  0  0  0  0  0  0  0  0
  100.4353   -6.8234   42.4885 O   0  0  0  0  0  0  0  0  0  0  0  0
  102.7340   -7.1849   43.1592 C   0  0  0  0  0  0  0  0  0  0  0  0
  100.4286  -10.6898   40.5171 N   0  0  0  0  0  0  0  0  0  0  0  0
   99.1417  -11.3007   40.2100 C   0  0  0  0  0  0  0  0  0  0  0  0
   98.0368  -10.2674   39.9818 C   0  0  0  0  0  0  0  0  0  0  0  0
   97.7340   -9.4334   40.8318 O   0  0  0  0  0  0  0  0  0  0  0  0
   97.3670  -10.3902   38.7889 N   0  0  0  0  0  0  0  0  0  0  0  0
   97.9136  -11.2151   37.7161 C   0  0  0  0  0  0  0  0  0  0  0  0
   96.7716  -11.6400   36.7923 C   0  0  0  0  0  0  0  0  0  0  0  0
   95.7109  -12.1026   37.2127 O   0  0  0  0  0  0  0  0  0  0  0  0
   97.0032  -11.5105   35.4347 N   0  0  0  0  0  0  0  0  0  0  0  0
   96.5235  -10.3308   34.7012 C   0  0  1  0  0  0  0  0  0  0  0  0
   97.5266   -9.8929   33.6237 C   0  0  0  0  0  0  0  0  0  0  0  0
   97.1319   -8.5698   32.9358 C   0  0  0  0  0  0  0  0  0  0  0  0
   98.2756   -7.9154   32.1694 C   0  0  0  0  0  0  0  0  0  0  0  0
   97.8240   -7.2122   30.8985 C   0  0  0  0  0  0  0  0  0  0  0  0
   96.5036   -7.7033   30.5275 N   0  0  0  0  0  0  0  0  0  0  0  0
   95.9465   -7.3984   29.3151 C   0  0  0  0  0  0  0  0  0  0  0  0
   96.1445   -8.0313   28.2857 O   0  0  0  0  0  0  0  0  0  0  0  0
   95.0737   -6.1991   29.3632 C   0  0  0  0  0  0  0  0  0  0  0  0
   94.4650   -5.7729   28.2463 C   0  0  0  0  0  0  0  0  0  0  0  0
   94.1682   -6.6287   27.0605 C   0  0  0  0  0  0  0  0  0  0  0  0
   95.0971  -10.5986   34.1216 C   0  0  0  0  0  0  0  0  0  0  0  0
   94.3921   -9.7454   33.5806 O   0  0  0  0  0  0  0  0  0  0  0  0
   94.6277  -11.8620   34.4115 N   0  0  0  0  0  0  0  0  0  0  0  0
   93.3048  -12.3115   34.0332 C   0  0  2  0  0  0  0  0  0  0  0  0
   92.2647  -12.1480   35.1652 C   0  0  0  0  0  0  0  0  0  0  0  0
   92.6651  -11.9349   36.3164 O   0  0  0  0  0  0  0  0  0  0  0  0
   93.3493  -13.7140   33.4767 C   0  0  0  0  0  0  0  0  0  0  0  0
   90.9141  -12.2308   34.9025 N   0  0  0  0  0  0  0  0  0  0  0  0
   89.9486  -12.0720   35.9953 C   0  0  2  0  0  0  0  0  0  0  0  0
   89.7848  -13.3567   36.8311 C   0  0  0  0  0  0  0  0  0  0  0  0
   89.7784  -13.4738   38.0474 O   0  0  0  0  0  0  0  0  0  0  0  0
   88.6489  -11.6799   35.2844 C   0  0  0  0  0  0  0  0  0  0  0  0
   88.7663  -12.3902   33.9423 C   0  0  0  0  0  0  0  0  0  0  0  0
   90.2369  -12.1908   33.6107 C   0  0  0  0  0  0  0  0  0  0  0  0
   89.5573  -14.4388   36.0569 O   0  0  0  0  0  0  0  0  0  0  0  0
   99.3975   -4.4712   35.7012 H   0  0  0  0  0  0  0  0  0  0  0  0
   97.1258   -5.0104   46.3872 H   0  0  0  0  0  0  0  0  0  0  0  0
  1  2  1  0
  2  3  1  0
  2  5  1  1
  3  4  2  0
  3  6  1  0
  6  7  1  0
  7  8  1  0
  7 10  1  1
  8  9  2  0
  8 17  1  0
 10 11  1  0
 11 12  1  0
 12 13  1  0
 13 14  1  0
 14 15  2  0
 14 16  1  0
 18 17  1  6
 18 19  1  0
 18 21  1  0
 19 20  2  0
 19 24  1  0
 21 22  1  0
 21 23  1  1
 24 25  1  0
 25 26  1  0
 25 28  1  6
 26 27  2  0
 26 33  1  0
 28 29  1  0
 29 30  1  0
 30 31  1  0
 31 32  1  0
 33 34  1  0
 34 35  1  0
 34 37  1  6
 35 36  2  0
 35 42  1  0
 37 38  1  0
 38 39  1  0
 39 40  2  0
 39 41  1  0
 43 42  1  6
 43 44  1  0
 43 46  1  0
 44 45  2  0
 44 49  1  0
 46 47  1  0
 46 48  1  1
 49 50  1  0
 50 51  1  0
 50 53  1  1
 51 52  2  0
 51 54  1  0
 54 55  1  0
 55 56  1  0
 55 58  1  6
 56 57  2  0
 56 65  1  0
 58 59  1  0
 59 60  1  0
 60 61  1  0
 61 62  1  0
 62 63  2  0
 62 64  1  0
 65 66  1  0
 66 67  1  0
 66 69  1  6
 67 68  2  0
 67 74  1  0
 69 70  1  0
 70 71  1  0
 71 72  1  0
 72 73  1  0
 74 75  1  0
 75 76  1  0
 75 78  1  1
 76 77  2  0
 76 80  1  0
 78 79  1  0
 81 80  1  6
 81 82  1  0
 81 84  1  0
 82 83  2  0
 82 87  1  0
 84 85  1  0
 84 86  1  6
 87 88  1  0
 88 89  1  0
 89 90  2  0
 89 91  1  0
 91 92  1  0
 92 93  1  0
 93 94  2  0
 93 95  1  0
 95 96  1  0
 96 97  1  6
 96107  1  0
 97 98  1  0
 98 99  1  0
 99100  1  0
100101  1  0
101102  1  0
102103  2  0
102104  1  0
104105  2  0
105106  1  0
107108  2  0
107109  1  0
109110  1  0
110111  1  0
110113  1  1
111112  2  0
111114  1  0
114115  1  0
114120  1  0
115116  1  6
115118  1  0
116117  2  0
116121  1  0
118119  1  0
119120  1  0
 15122  1  0
 63123  1  0
M  CHG  3   1   1  32   1  73   1
M  END
$$$$
