
     RDKit          3D

123123  0  0  0  0  0  0  0  0999 V2000
  101.3338  -12.3644   40.7246 N   0  0  0  0  0  4  0  0  0  0  0  0
  100.1714  -11.4896   40.3420 C   0  0  2  0  0  0  0  0  0  0  0  0
   99.9261  -11.5999   38.8288 C   0  0  0  0  0  0  0  0  0  0  0  0
  100.8735  -11.7822   38.0635 O   0  0  0  0  0  0  0  0  0  0  0  0
  100.5117  -10.0604   40.7372 C   0  0  0  0  0  0  0  0  0  0  0  0
   98.6210  -11.4659   38.4292 N   0  0  0  0  0  0  0  0  0  0  0  0
   98.1160  -11.9288   37.1354 C   0  0  2  0  0  0  0  0  0  0  0  0
   97.5184  -10.7537   36.3139 C   0  0  0  0  0  0  0  0  0  0  0  0
   96.4718  -10.2052   36.6627 O   0  0  0  0  0  0  0  0  0  0  0  0
   97.2476  -13.1955   37.2329 C   0  0  0  0  0  0  0  0  0  0  0  0
   96.5584  -13.5770   35.9102 C   0  0  0  0  0  0  0  0  0  0  0  0
   95.6507  -14.7990   36.0466 C   0  0  0  0  0  0  0  0  0  0  0  0
   95.0125  -15.1042   34.7796 N   0  0  0  0  0  0  0  0  0  0  0  0
   93.9483  -14.3814   34.3638 C   0  0  0  0  0  0  0  0  0  0  0  0
   93.0185  -13.9522   35.1462 N   0  0  0  0  0  0  0  0  0  0  0  0
   93.9619  -14.0865   33.0523 N   0  0  0  0  0  0  0  0  0  0  0  0
   98.3414  -10.2680   35.3211 N   0  0  0  0  0  0  0  0  0  0  0  0
   98.1815   -8.9807   34.6021 C   0  0  2  0  0  0  0  0  0  0  0  0
   99.0148   -8.9710   33.3025 C   0  0  0  0  0  0  0  0  0  0  0  0
   98.9946   -9.9171   32.5188 O   0  0  0  0  0  0  0  0  0  0  0  0
   98.3380   -7.6722   35.4034 C   0  0  2  0  0  0  0  0  0  0  0  0
   99.6790   -7.1787   35.4318 O   0  0  0  0  0  0  0  0  0  0  0  0
   97.8380   -7.8195   36.8374 C   0  0  0  0  0  0  0  0  0  0  0  0
   99.7435   -7.8222   33.0995 N   0  0  0  0  0  0  0  0  0  0  0  0
  100.4020   -7.4448   31.8589 C   0  0  2  0  0  0  0  0  0  0  0  0
  101.9095   -7.1597   32.0482 C   0  0  0  0  0  0  0  0  0  0  0  0
  102.7604   -7.2886   31.1789 O   0  0  0  0  0  0  0  0  0  0  0  0
   99.7079   -6.3557   31.0186 C   0  0  0  0  0  0  0  0  0  0  0  0
   99.6338   -6.7432   29.5352 C   0  0  0  0  0  0  0  0  0  0  0  0
   99.3384   -5.5853   28.5719 C   0  0  0  0  0  0  0  0  0  0  0  0
   99.7982   -5.8222   27.1404 C   0  0  0  0  0  0  0  0  0  0  0  0
   98.7089   -5.4663   26.2078 N   0  0  0  0  0  4  0  0  0  0  0  0
  102.2119   -6.6646   33.3065 N   0  0  0  0  0  0  0  0  0  0  0  0
  103.4983   -6.0372   33.6301 C   0  0  2  0  0  0  0  0  0  0  0  0
  103.6266   -5.6278   35.1241 C   0  0  0  0  0  0  0  0  0  0  0  0
  104.7076   -5.3844   35.6636 O   0  0  0  0  0  0  0  0  0  0  0  0
  103.9061   -4.9565   32.6179 C   0  0  0  0  0  0  0  0  0  0  0  0
  103.5069   -3.5149   32.9615 C   0  0  0  0  0  0  0  0  0  0  0  0
  103.9857   -2.4901   31.9538 C   0  0  0  0  0  0  0  0  0  0  0  0
  105.1597   -2.3330   31.6287 O   0  0  0  0  0  0  0  0  0  0  0  0
  103.0046   -1.7040   31.4154 N   0  0  0  0  0  0  0  0  0  0  0  0
  102.4811   -5.7798   35.8766 N   0  0  0  0  0  0  0  0  0  0  0  0
  102.4212   -6.8329   36.9121 C   0  0  2  0  0  0  0  0  0  0  0  0
  102.3969   -6.2648   38.3482 C   0  0  0  0  0  0  0  0  0  0  0  0
  102.4636   -6.9851   39.3362 O   0  0  0  0  0  0  0  0  0  0  0  0
  103.6417   -7.7799   36.7774 C   0  0  2  0  0  0  0  0  0  0  0  0
  104.8589   -7.0004   36.8435 O   0  0  0  0  0  0  0  0  0  0  0  0
  103.5789   -8.5726   35.4788 C   0  0  0  0  0  0  0  0  0  0  0  0
  102.4040   -4.8872   38.4057 N   0  0  0  0  0  0  0  0  0  0  0  0
  103.3953   -4.1003   39.1322 C   0  0  2  0  0  0  0  0  0  0  0  0
  103.1159   -2.6517   38.6843 C   0  0  0  0  0  0  0  0  0  0  0  0
  103.3449   -1.6701   39.3988 O   0  0  0  0  0  0  0  0  0  0  0  0
  104.8512   -4.4979   38.9034 C   0  0  0  0  0  0  0  0  0  0  0  0
  102.3852   -2.5324   37.5170 N   0  0  0  0  0  0  0  0  0  0  0  0
  101.9451   -1.2518   36.9676 C   0  0  2  0  0  0  0  0  0  0  0  0
  101.3286   -0.3310   38.0457 C   0  0  0  0  0  0  0  0  0  0  0  0
  100.9456   -0.7433   39.1376 O   0  0  0  0  0  0  0  0  0  0  0  0
  101.0295   -1.4198   35.7465 C   0  0  0  0  0  0  0  0  0  0  0  0
  100.0321   -0.2908   35.4622 C   0  0  0  0  0  0  0  0  0  0  0  0
   99.4579   -0.2481   34.0454 C   0  0  0  0  0  0  0  0  0  0  0  0
   99.0304   -1.5896   33.6743 N   0  0  0  0  0  0  0  0  0  0  0  0
   98.1847   -1.8610   32.6538 C   0  0  0  0  0  0  0  0  0  0  0  0
   97.3797   -2.8551   32.5339 N   0  0  0  0  0  0  0  0  0  0  0  0
   98.2406   -0.9014   31.7166 N   0  0  0  0  0  0  0  0  0  0  0  0
  101.1410    0.9752   37.6535 N   0  0  0  0  0  0  0  0  0  0  0  0
  100.6388    2.0422   38.5270 C   0  0  2  0  0  0  0  0  0  0  0  0
   99.1003    2.2057   38.5969 C   0  0  0  0  0  0  0  0  0  0  0  0
   98.6027    3.2671   38.9760 O   0  0  0  0  0  0  0  0  0  0  0  0
  101.3625    3.3805   38.2861 C   0  0  0  0  0  0  0  0  0  0  0  0
  101.8218    3.5146   36.8236 C   0  0  0  0  0  0  0  0  0  0  0  0
  102.4252    4.8889   36.5221 C   0  0  0  0  0  0  0  0  0  0  0  0
  103.9534    4.9343   36.5673 C   0  0  0  0  0  0  0  0  0  0  0  0
  104.4920    6.0908   35.8300 N   0  0  0  0  0  4  0  0  0  0  0  0
   98.3534    1.1396   38.1670 N   0  0  0  0  0  0  0  0  0  0  0  0
   96.9521    1.1958   37.7094 C   0  0  2  0  0  0  0  0  0  0  0  0
   96.3982   -0.2324   37.5122 C   0  0  0  0  0  0  0  0  0  0  0  0
   96.9188   -1.2134   38.0376 O   0  0  0  0  0  0  0  0  0  0  0  0
   96.6818    2.0684   36.4761 C   0  0  0  0  0  0  0  0  0  0  0  0
   95.4961    1.6394   35.7865 O   0  0  0  0  0  0  0  0  0  0  0  0
   95.2809   -0.3085   36.6957 N   0  0  0  0  0  0  0  0  0  0  0  0
   94.7141   -1.6426   36.3973 C   0  0  2  0  0  0  0  0  0  0  0  0
   94.0308   -2.3212   37.5984 C   0  0  0  0  0  0  0  0  0  0  0  0
   94.0660   -3.5393   37.7540 O   0  0  0  0  0  0  0  0  0  0  0  0
   95.8524   -2.5853   35.9162 C   0  0  2  0  0  0  0  0  0  0  0  0
   96.8187   -2.7396   36.9750 O   0  0  0  0  0  0  0  0  0  0  0  0
   96.5441   -2.0448   34.6715 C   0  0  0  0  0  0  0  0  0  0  0  0
   93.5900   -1.4713   38.5903 N   0  0  0  0  0  0  0  0  0  0  0  0
   92.8825   -1.9827   39.7571 C   0  0  0  0  0  0  0  0  0  0  0  0
   93.7526   -2.8967   40.6219 C   0  0  0  0  0  0  0  0  0  0  0  0
   93.6192   -4.1181   40.6244 O   0  0  0  0  0  0  0  0  0  0  0  0
   94.6400   -2.2440   41.4425 N   0  0  0  0  0  0  0  0  0  0  0  0
   95.5946   -2.9991   42.2477 C   0  0  0  0  0  0  0  0  0  0  0  0
   95.1653   -4.4665   42.2713 C   0  0  0  0  0  0  0  0  0  0  0  0
   94.5674   -4.9710   43.2220 O   0  0  0  0  0  0  0  0  0  0  0  0
   95.5173   -5.2243   41.1688 N   0  0  0  0  0  0  0  0  0  0  0  0
   95.4484   -6.6916   41.2144 C   0  0  1  0  0  0  0  0  0  0  0  0
   94.8796   -7.2682   39.9094 C   0  0  0  0  0  0  0  0  0  0  0  0
   95.8111   -8.3091   39.2547 C   0  0  0  0  0  0  0  0  0  0  0  0
   95.1489   -9.1005   38.1328 C   0  0  0  0  0  0  0  0  0  0  0  0
   95.9756  -10.2886   37.6651 C   0  0  0  0  0  0  0  0  0  0  0  0
   96.7543   -9.8956   36.4983 N   0  0  0  0  0  0  0  0  0  0  0  0
   96.1585   -9.3311   35.4031 C   0  0  0  0  0  0  0  0  0  0  0  0
   94.9760   -9.4649   35.1149 O   0  0  0  0  0  0  0  0  0  0  0  0
   97.1003   -8.5375   34.5751 C   0  0  0  0  0  0  0  0  0  0  0  0
   97.0560   -8.6343   33.2378 C   0  0  0  0  0  0  0  0  0  0  0  0
   98.2072   -9.0323   32.3758 C   0  0  0  0  0  0  0  0  0  0  0  0
   96.8476   -7.2868   41.5752 C   0  0  0  0  0  0  0  0  0  0  0  0
   97.1990   -8.4419   41.3301 O   0  0  0  0  0  0  0  0  0  0  0  0
   97.6125   -6.4344   42.3427 N   0  0  0  0  0  0  0  0  0  0  0  0
   99.0474   -6.3190   42.1906 C   0  0  2  0  0  0  0  0  0  0  0  0
   99.4589   -5.3256   41.0797 C   0  0  0  0  0  0  0  0  0  0  0  0
   99.1088   -5.5548   39.9154 O   0  0  0  0  0  0  0  0  0  0  0  0
   99.6845   -7.6775   42.0268 C   0  0  0  0  0  0  0  0  0  0  0  0
  100.1973   -4.1998   41.3753 N   0  0  0  0  0  0  0  0  0  0  0  0
  100.5096   -3.2348   40.3157 C   0  0  2  0  0  0  0  0  0  0  0  0
  101.6933   -3.6843   39.4367 C   0  0  0  0  0  0  0  0  0  0  0  0
  101.7002   -3.9202   38.2377 O   0  0  0  0  0  0  0  0  0  0  0  0
  100.8179   -1.9403   41.0756 C   0  0  0  0  0  0  0  0  0  0  0  0
  101.4063   -2.4458   42.3863 C   0  0  0  0  0  0  0  0  0  0  0  0
  100.5194   -3.6442   42.6855 C   0  0  0  0  0  0  0  0  0  0  0  0
  102.8488   -3.7382   40.1323 O   0  0  0  0  0  0  0  0  0  0  0  0
   93.4497  -13.2666   35.7884 H   0  0  0  0  0  0  0  0  0  0  0  0
   97.9420   -3.6889   32.3439 H   0  0  0  0  0  0  0  0  0  0  0  0
  1  2  1  0
  2  3  1  0
  2  5  1  6
  3  4  2  0
  3  6  1  0
  6  7  1  0
  7  8  1  0
  7 10  1  1
  8  9  2  0
  8 17  1  0
 10 11  1  0
 11 12  1  0
 12 13  1  0
 13 14  1  0
 14 15  2  0
 14 16  1  0
 18 17  1  1
 18 19  1  0
 18 21  1  0
 19 20  2  0
 19 24  1  0
 21 22  1  0
 21 23  1  1
 24 25  1  0
 25 26  1  0
 25 28  1  1
 26 27  2  0
 26 33  1  0
 28 29  1  0
 29 30  1  0
 30 31  1  0
 31 32  1  0
 33 34  1  0
 34 35  1  0
 34 37  1  6
 35 36  2  0
 35 42  1  0
 37 38  1  0
 38 39  1  0
 39 40  2  0
 39 41  1  0
 43 42  1  6
 43 44  1  0
 43 46  1  0
 44 45  2  0
 44 49  1  0
 46 47  1  0
 46 48  1  6
 49 50  1  0
 50 51  1  0
 50 53  1  6
 51 52  2  0
 51 54  1  0
 54 55  1  0
 55 56  1  0
 55 58  1  6
 56 57  2  0
 56 65  1  0
 58 59  1  0
 59 60  1  0
 60 61  1  0
 61 62  1  0
 62 63  2  0
 62 64  1  0
 65 66  1  0
 66 67  1  0
 66 69  1  6
 67 68  2  0
 67 74  1  0
 69 70  1  0
 70 71  1  0
 71 72  1  0
 72 73  1  0
 74 75  1  0
 75 76  1  0
 75 78  1  6
 76 77  2  0
 76 80  1  0
 78 79  1  0
 81 80  1  1
 81 82  1  0
 81 84  1  0
 82 83  2  0
 82 87  1  0
 84 85  1  0
 84 86  1  6
 87 88  1  0
 88 89  1  0
 89 90  2  0
 89 91  1  0
 91 92  1  0
 92 93  1  0
 93 94  2  0
 93 95  1  0
 95 96  1  0
 96 97  1  6
 96107  1  0
 97 98  1  0
 98 99  1  0
 99100  1  0
100101  1  0
101102  1  0
102103  2  0
102104  1  0
104105  2  0
105106  1  0
107108  2  0
107109  1  0
109110  1  0
110111  1  0
110113  1  6
111112  2  0
111114  1  0
114115  1  0
114120  1  0
115116  1  1
115118  1  0
116117  2  0
116121  1  0
118119  1  0
119120  1  0
 15122  1  0
 63123  1  0
M  CHG  3   1   1  32   1  73   1
M  END
$$$$
