
     RDKit          3D

123123  0  0  0  0  0  0  0  0999 V2000
  102.2345   -4.4076   32.7823 N   0  0  0  0  0  4  0  0  0  0  0  0
  101.9049   -4.3562   31.3155 C   0  0  2  0  0  0  0  0  0  0  0  0
  101.7827   -5.7876   30.7696 C   0  0  0  0  0  0  0  0  0  0  0  0
  102.0583   -6.0231   29.5927 O   0  0  0  0  0  0  0  0  0  0  0  0
  103.0198   -3.5969   30.6120 C   0  0  0  0  0  0  0  0  0  0  0  0
  101.3437   -6.7279   31.6663 N   0  0  0  0  0  0  0  0  0  0  0  0
   99.9333   -7.0691   31.8605 C   0  0  2  0  0  0  0  0  0  0  0  0
   99.7631   -8.1354   32.9772 C   0  0  0  0  0  0  0  0  0  0  0  0
  100.7422   -8.6034   33.5603 O   0  0  0  0  0  0  0  0  0  0  0  0
   99.1809   -7.3412   30.5460 C   0  0  0  0  0  0  0  0  0  0  0  0
   99.9925   -8.1607   29.5263 C   0  0  0  0  0  0  0  0  0  0  0  0
   99.1815   -8.5315   28.2851 C   0  0  0  0  0  0  0  0  0  0  0  0
  100.0264   -9.1777   27.2981 N   0  0  0  0  0  0  0  0  0  0  0  0
   99.9812   -8.7862   26.0047 C   0  0  0  0  0  0  0  0  0  0  0  0
  100.6336   -7.7797   25.5332 N   0  0  0  0  0  0  0  0  0  0  0  0
   99.2340   -9.5778   25.2160 N   0  0  0  0  0  0  0  0  0  0  0  0
   98.4619   -8.3447   33.3798 N   0  0  0  0  0  0  0  0  0  0  0  0
   97.9490   -8.2540   34.7685 C   0  0  2  0  0  0  0  0  0  0  0  0
   96.6136   -9.0155   34.9110 C   0  0  0  0  0  0  0  0  0  0  0  0
   95.7359   -8.9398   34.0546 O   0  0  0  0  0  0  0  0  0  0  0  0
   97.9023   -6.8666   35.4407 C   0  0  2  0  0  0  0  0  0  0  0  0
   97.1038   -5.9169   34.7314 O   0  0  0  0  0  0  0  0  0  0  0  0
   99.2980   -6.2836   35.6406 C   0  0  0  0  0  0  0  0  0  0  0  0
   96.5133   -9.7854   36.0464 N   0  0  0  0  0  0  0  0  0  0  0  0
   95.8994  -11.1014   36.1260 C   0  0  2  0  0  0  0  0  0  0  0  0
   94.7078  -11.1437   37.1098 C   0  0  0  0  0  0  0  0  0  0  0  0
   94.5154  -12.0229   37.9382 O   0  0  0  0  0  0  0  0  0  0  0  0
   96.8561  -12.2929   36.3239 C   0  0  0  0  0  0  0  0  0  0  0  0
   96.1855  -13.4386   37.0943 C   0  0  0  0  0  0  0  0  0  0  0  0
   96.7078  -14.8430   36.7614 C   0  0  0  0  0  0  0  0  0  0  0  0
   96.6338  -15.2107   35.2863 C   0  0  0  0  0  0  0  0  0  0  0  0
   97.6473  -16.2425   34.9843 N   0  0  0  0  0  4  0  0  0  0  0  0
   93.8893  -10.0296   37.0152 N   0  0  0  0  0  0  0  0  0  0  0  0
   92.6977   -9.8407   37.8503 C   0  0  2  0  0  0  0  0  0  0  0  0
   93.0285   -9.5612   39.3431 C   0  0  0  0  0  0  0  0  0  0  0  0
   92.5358   -8.6260   39.9768 O   0  0  0  0  0  0  0  0  0  0  0  0
   91.6232  -10.9108   37.6072 C   0  0  0  0  0  0  0  0  0  0  0  0
   92.0257  -12.3615   37.9059 C   0  0  0  0  0  0  0  0  0  0  0  0
   91.2932  -12.9701   39.0840 C   0  0  0  0  0  0  0  0  0  0  0  0
   91.2066  -12.4474   40.1921 O   0  0  0  0  0  0  0  0  0  0  0  0
   90.7246  -14.1908   38.8454 N   0  0  0  0  0  0  0  0  0  0  0  0
   94.0871  -10.2807   39.8562 N   0  0  0  0  0  0  0  0  0  0  0  0
   94.4580  -10.1219   41.2781 C   0  0  2  0  0  0  0  0  0  0  0  0
   95.7585   -9.3121   41.4746 C   0  0  0  0  0  0  0  0  0  0  0  0
   95.9989   -8.7046   42.5104 O   0  0  0  0  0  0  0  0  0  0  0  0
   94.6394  -11.5133   41.9381 C   0  0  2  0  0  0  0  0  0  0  0  0
   95.7813  -11.4741   42.8258 O   0  0  0  0  0  0  0  0  0  0  0  0
   94.8118  -12.6002   40.8856 C   0  0  0  0  0  0  0  0  0  0  0  0
   96.6537   -9.4288   40.4325 N   0  0  0  0  0  0  0  0  0  0  0  0
   97.9065   -8.6861   40.3385 C   0  0  2  0  0  0  0  0  0  0  0  0
   97.5645   -7.5030   39.4108 C   0  0  0  0  0  0  0  0  0  0  0  0
   97.6473   -7.5671   38.1797 O   0  0  0  0  0  0  0  0  0  0  0  0
   99.1085   -9.4795   39.8326 C   0  0  0  0  0  0  0  0  0  0  0  0
   97.3721   -6.2944   40.0532 N   0  0  0  0  0  0  0  0  0  0  0  0
   96.1809   -5.4666   39.8756 C   0  0  2  0  0  0  0  0  0  0  0  0
   96.1431   -4.2734   40.8580 C   0  0  0  0  0  0  0  0  0  0  0  0
   95.4295   -3.2884   40.6863 O   0  0  0  0  0  0  0  0  0  0  0  0
   94.8846   -6.2892   39.9017 C   0  0  0  0  0  0  0  0  0  0  0  0
   93.5906   -5.5407   40.2422 C   0  0  0  0  0  0  0  0  0  0  0  0
   92.3073   -6.1205   39.6459 C   0  0  0  0  0  0  0  0  0  0  0  0
   91.2832   -6.1495   40.6807 N   0  0  0  0  0  0  0  0  0  0  0  0
   90.0305   -6.6256   40.4950 C   0  0  0  0  0  0  0  0  0  0  0  0
   89.1152   -6.8144   41.3765 N   0  0  0  0  0  0  0  0  0  0  0  0
   89.7983   -6.8700   39.1956 N   0  0  0  0  0  0  0  0  0  0  0  0
   97.0494   -4.3452   41.8917 N   0  0  0  0  0  0  0  0  0  0  0  0
   96.8845   -3.6819   43.1904 C   0  0  2  0  0  0  0  0  0  0  0  0
   97.9686   -3.9788   44.2559 C   0  0  0  0  0  0  0  0  0  0  0  0
   97.8314   -3.5788   45.4131 O   0  0  0  0  0  0  0  0  0  0  0  0
   95.4560   -3.8361   43.7454 C   0  0  0  0  0  0  0  0  0  0  0  0
   95.3591   -3.3273   45.1944 C   0  0  0  0  0  0  0  0  0  0  0  0
   93.9541   -3.4896   45.7802 C   0  0  0  0  0  0  0  0  0  0  0  0
   93.5386   -2.3807   46.7483 C   0  0  0  0  0  0  0  0  0  0  0  0
   92.2843   -2.7041   47.4505 N   0  0  0  0  0  4  0  0  0  0  0  0
   99.0316   -4.7425   43.8484 N   0  0  0  0  0  0  0  0  0  0  0  0
  100.4318   -4.5737   44.2806 C   0  0  2  0  0  0  0  0  0  0  0  0
  101.2000   -3.6965   43.2678 C   0  0  0  0  0  0  0  0  0  0  0  0
  101.9595   -2.7991   43.6247 O   0  0  0  0  0  0  0  0  0  0  0  0
  101.2013   -5.8656   44.5878 C   0  0  0  0  0  0  0  0  0  0  0  0
  100.3024   -6.9629   44.8183 O   0  0  0  0  0  0  0  0  0  0  0  0
  100.9548   -4.0033   41.9388 N   0  0  0  0  0  0  0  0  0  0  0  0
  101.4594   -3.0814   40.8967 C   0  0  2  0  0  0  0  0  0  0  0  0
  100.3804   -2.1703   40.2839 C   0  0  0  0  0  0  0  0  0  0  0  0
   99.2827   -2.6091   39.9498 O   0  0  0  0  0  0  0  0  0  0  0  0
  102.0807   -3.9107   39.7383 C   0  0  2  0  0  0  0  0  0  0  0  0
  101.0796   -4.1322   38.7246 O   0  0  0  0  0  0  0  0  0  0  0  0
  102.6143   -5.2508   40.2271 C   0  0  0  0  0  0  0  0  0  0  0  0
  100.6353   -0.8172   40.3522 N   0  0  0  0  0  0  0  0  0  0  0  0
   99.5768    0.1304   40.6768 C   0  0  0  0  0  0  0  0  0  0  0  0
   99.7757    1.4908   40.0059 C   0  0  0  0  0  0  0  0  0  0  0  0
   99.8103    2.5386   40.6467 O   0  0  0  0  0  0  0  0  0  0  0  0
   99.8409    1.4556   38.6343 N   0  0  0  0  0  0  0  0  0  0  0  0
   99.8926    2.6947   37.8650 C   0  0  0  0  0  0  0  0  0  0  0  0
  100.4353    2.3845   36.4695 C   0  0  0  0  0  0  0  0  0  0  0  0
   99.7708    2.5432   35.4453 O   0  0  0  0  0  0  0  0  0  0  0  0
  101.7199    1.8746   36.4126 N   0  0  0  0  0  0  0  0  0  0  0  0
  102.4889    1.9170   35.1609 C   0  0  1  0  0  0  0  0  0  0  0  0
  103.7881    2.7193   35.3265 C   0  0  0  0  0  0  0  0  0  0  0  0
  105.0160    1.8268   35.6010 C   0  0  0  0  0  0  0  0  0  0  0  0
  106.2887    2.3125   34.9170 C   0  0  0  0  0  0  0  0  0  0  0  0
  106.5683    3.7903   35.1448 C   0  0  0  0  0  0  0  0  0  0  0  0
  107.1290    3.9676   36.4776 N   0  0  0  0  0  0  0  0  0  0  0  0
  108.4795    3.9167   36.6933 C   0  0  0  0  0  0  0  0  0  0  0  0
  109.1209    2.8805   36.8126 O   0  0  0  0  0  0  0  0  0  0  0  0
  109.1034    5.2602   36.7835 C   0  0  0  0  0  0  0  0  0  0  0  0
  110.3917    5.3740   37.1402 C   0  0  0  0  0  0  0  0  0  0  0  0
  111.1488    6.6588   37.1925 C   0  0  0  0  0  0  0  0  0  0  0  0
  102.7402    0.4680   34.6323 C   0  0  0  0  0  0  0  0  0  0  0  0
  102.5967    0.1181   33.4598 O   0  0  0  0  0  0  0  0  0  0  0  0
  102.9943   -0.4358   35.6419 N   0  0  0  0  0  0  0  0  0  0  0  0
  102.8295   -1.8640   35.4737 C   0  0  2  0  0  0  0  0  0  0  0  0
  101.5043   -2.2406   34.7723 C   0  0  0  0  0  0  0  0  0  0  0  0
  101.4594   -2.2267   33.5358 O   0  0  0  0  0  0  0  0  0  0  0  0
  103.0255   -2.5885   36.7834 C   0  0  0  0  0  0  0  0  0  0  0  0
  100.3910   -2.5923   35.5050 N   0  0  0  0  0  0  0  0  0  0  0  0
  100.0742   -4.0093   35.7132 C   0  0  2  0  0  0  0  0  0  0  0  0
   99.3757   -4.6442   34.4947 C   0  0  0  0  0  0  0  0  0  0  0  0
   98.2835   -5.1900   34.4465 O   0  0  0  0  0  0  0  0  0  0  0  0
   99.1747   -4.0071   36.9539 C   0  0  0  0  0  0  0  0  0  0  0  0
   98.4582   -2.6669   36.8537 C   0  0  0  0  0  0  0  0  0  0  0  0
   99.5732   -1.7516   36.3729 C   0  0  0  0  0  0  0  0  0  0  0  0
  100.0884   -4.4801   33.3601 O   0  0  0  0  0  0  0  0  0  0  0  0
  101.5029   -7.6913   26.0852 H   0  0  0  0  0  0  0  0  0  0  0  0
   89.4144   -6.3517   42.2389 H   0  0  0  0  0  0  0  0  0  0  0  0
  1  2  1  0
  2  3  1  0
  2  5  1  6
  3  4  2  0
  3  6  1  0
  6  7  1  0
  7  8  1  0
  7 10  1  6
  8  9  2  0
  8 17  1  0
 10 11  1  0
 11 12  1  0
 12 13  1  0
 13 14  1  0
 14 15  2  0
 14 16  1  0
 18 17  1  6
 18 19  1  0
 18 21  1  0
 19 20  2  0
 19 24  1  0
 21 22  1  0
 21 23  1  6
 24 25  1  0
 25 26  1  0
 25 28  1  1
 26 27  2  0
 26 33  1  0
 28 29  1  0
 29 30  1  0
 30 31  1  0
 31 32  1  0
 33 34  1  0
 34 35  1  0
 34 37  1  1
 35 36  2  0
 35 42  1  0
 37 38  1  0
 38 39  1  0
 39 40  2  0
 39 41  1  0
 43 42  1  6
 43 44  1  0
 43 46  1  0
 44 45  2  0
 44 49  1  0
 46 47  1  0
 46 48  1  6
 49 50  1  0
 50 51  1  0
 50 53  1  6
 51 52  2  0
 51 54  1  0
 54 55  1  0
 55 56  1  0
 55 58  1  1
 56 57  2  0
 56 65  1  0
 58 59  1  0
 59 60  1  0
 60 61  1  0
 61 62  1  0
 62 63  2  0
 62 64  1  0
 65 66  1  0
 66 67  1  0
 66 69  1  1
 67 68  2  0
 67 74  1  0
 69 70  1  0
 70 71  1  0
 71 72  1  0
 72 73  1  0
 74 75  1  0
 75 76  1  0
 75 78  1  6
 76 77  2  0
 76 80  1  0
 78 79  1  0
 81 80  1  1
 81 82  1  0
 81 84  1  0
 82 83  2  0
 82 87  1  0
 84 85  1  0
 84 86  1  1
 87 88  1  0
 88 89  1  0
 89 90  2  0
 89 91  1  0
 91 92  1  0
 92 93  1  0
 93 94  2  0
 93 95  1  0
 95 96  1  0
 96 97  1  1
 96107  1  0
 97 98  1  0
 98 99  1  0
 99100  1  0
100101  1  0
101102  1  0
102103  2  0
102104  1  0
104105  2  0
105106  1  0
107108  2  0
107109  1  0
109110  1  0
110111  1  0
110113  1  1
111112  2  0
111114  1  0
114115  1  0
114120  1  0
115116  1  6
115118  1  0
116117  2  0
116121  1  0
118119  1  0
119120  1  0
 15122  1  0
 63123  1  0
M  CHG  3   1   1  32   1  73   1
M  END
$$$$
