
     RDKit          3D

123123  0  0  0  0  0  0  0  0999 V2000
  100.1976  -18.4406   31.3883 N   0  0  0  0  0  4  0  0  0  0  0  0
  100.8613  -17.1507   31.7864 C   0  0  2  0  0  0  0  0  0  0  0  0
   99.9433  -16.3803   32.7484 C   0  0  0  0  0  0  0  0  0  0  0  0
   98.7448  -16.6567   32.8093 O   0  0  0  0  0  0  0  0  0  0  0  0
  101.1216  -16.3485   30.5202 C   0  0  0  0  0  0  0  0  0  0  0  0
  100.5500  -15.3941   33.4835 N   0  0  0  0  0  0  0  0  0  0  0  0
   99.8481  -14.5622   34.4626 C   0  0  2  0  0  0  0  0  0  0  0  0
   99.6314  -13.1222   33.9221 C   0  0  0  0  0  0  0  0  0  0  0  0
   99.8853  -12.8411   32.7497 O   0  0  0  0  0  0  0  0  0  0  0  0
  100.4242  -14.6704   35.8855 C   0  0  0  0  0  0  0  0  0  0  0  0
  100.6997  -16.1172   36.3336 C   0  0  0  0  0  0  0  0  0  0  0  0
  100.8308  -16.2524   37.8503 C   0  0  0  0  0  0  0  0  0  0  0  0
  102.2264  -16.3558   38.2343 N   0  0  0  0  0  0  0  0  0  0  0  0
  103.1322  -15.4798   37.7442 C   0  0  0  0  0  0  0  0  0  0  0  0
  102.8485  -14.2750   37.3853 N   0  0  0  0  0  0  0  0  0  0  0  0
  104.3911  -15.9498   37.7129 N   0  0  0  0  0  0  0  0  0  0  0  0
   98.9619  -12.2790   34.7821 N   0  0  0  0  0  0  0  0  0  0  0  0
   98.9488  -10.7971   34.7229 C   0  0  2  0  0  0  0  0  0  0  0  0
   98.5787  -10.1964   36.0962 C   0  0  0  0  0  0  0  0  0  0  0  0
   97.6355  -10.6293   36.7540 O   0  0  0  0  0  0  0  0  0  0  0  0
   98.1862  -10.1189   33.5666 C   0  0  2  0  0  0  0  0  0  0  0  0
   96.7710  -10.0807   33.7629 O   0  0  0  0  0  0  0  0  0  0  0  0
   98.4786  -10.7836   32.2247 C   0  0  0  0  0  0  0  0  0  0  0  0
   99.3991   -9.1739   36.5125 N   0  0  0  0  0  0  0  0  0  0  0  0
   99.7936   -8.9107   37.8873 C   0  0  2  0  0  0  0  0  0  0  0  0
  100.1095   -7.4188   38.1405 C   0  0  0  0  0  0  0  0  0  0  0  0
  100.0723   -6.8717   39.2339 O   0  0  0  0  0  0  0  0  0  0  0  0
  100.8704   -9.8393   38.4809 C   0  0  0  0  0  0  0  0  0  0  0  0
  100.9179   -9.7486   40.0124 C   0  0  0  0  0  0  0  0  0  0  0  0
  101.9469  -10.6647   40.6891 C   0  0  0  0  0  0  0  0  0  0  0  0
  101.9769  -10.5666   42.2077 C   0  0  0  0  0  0  0  0  0  0  0  0
  101.7510  -11.9045   42.7923 N   0  0  0  0  0  4  0  0  0  0  0  0
  100.5175   -6.7513   36.9969 N   0  0  0  0  0  0  0  0  0  0  0  0
  100.9040   -5.3358   36.9931 C   0  0  2  0  0  0  0  0  0  0  0  0
  101.8316   -4.9526   35.8063 C   0  0  0  0  0  0  0  0  0  0  0  0
  101.9326   -3.8019   35.3767 O   0  0  0  0  0  0  0  0  0  0  0  0
  101.3657   -4.8400   38.3714 C   0  0  0  0  0  0  0  0  0  0  0  0
  101.7516   -3.3577   38.4687 C   0  0  0  0  0  0  0  0  0  0  0  0
  102.7278   -3.0510   39.5859 C   0  0  0  0  0  0  0  0  0  0  0  0
  102.9696   -3.8075   40.5228 O   0  0  0  0  0  0  0  0  0  0  0  0
  103.3381   -1.8299   39.5036 N   0  0  0  0  0  0  0  0  0  0  0  0
  102.3611   -6.0160   35.1058 N   0  0  0  0  0  0  0  0  0  0  0  0
  102.7960   -5.8253   33.7061 C   0  0  2  0  0  0  0  0  0  0  0  0
  101.6139   -5.6859   32.7217 C   0  0  0  0  0  0  0  0  0  0  0  0
  101.7812   -5.4943   31.5239 O   0  0  0  0  0  0  0  0  0  0  0  0
  103.6742   -7.0212   33.2554 C   0  0  2  0  0  0  0  0  0  0  0  0
  103.9282   -7.8803   34.3916 O   0  0  0  0  0  0  0  0  0  0  0  0
  104.9815   -6.5395   32.6408 C   0  0  0  0  0  0  0  0  0  0  0  0
  100.3791   -5.9044   33.2949 N   0  0  0  0  0  0  0  0  0  0  0  0
   99.1464   -6.1039   32.5396 C   0  0  2  0  0  0  0  0  0  0  0  0
   98.4133   -4.7536   32.6680 C   0  0  0  0  0  0  0  0  0  0  0  0
   98.5189   -3.8483   31.8338 O   0  0  0  0  0  0  0  0  0  0  0  0
   98.2750   -7.2721   32.9937 C   0  0  0  0  0  0  0  0  0  0  0  0
   97.8040   -4.5341   33.8891 N   0  0  0  0  0  0  0  0  0  0  0  0
   97.0799   -3.3090   34.2212 C   0  0  2  0  0  0  0  0  0  0  0  0
   96.5485   -3.3160   35.6730 C   0  0  0  0  0  0  0  0  0  0  0  0
   95.6548   -2.5681   36.0615 O   0  0  0  0  0  0  0  0  0  0  0  0
   95.9845   -2.9779   33.1972 C   0  0  0  0  0  0  0  0  0  0  0  0
   96.1722   -1.7059   32.3621 C   0  0  0  0  0  0  0  0  0  0  0  0
   95.1715   -0.5801   32.6264 C   0  0  0  0  0  0  0  0  0  0  0  0
   94.9037    0.1103   31.3727 N   0  0  0  0  0  0  0  0  0  0  0  0
   95.3249   -0.3240   30.1626 C   0  0  0  0  0  0  0  0  0  0  0  0
   95.8368    0.3652   29.2068 N   0  0  0  0  0  0  0  0  0  0  0  0
   95.1810   -1.6543   30.0539 N   0  0  0  0  0  0  0  0  0  0  0  0
   97.2238   -4.1523   36.5330 N   0  0  0  0  0  0  0  0  0  0  0  0
   96.6093   -5.2667   37.2638 C   0  0  2  0  0  0  0  0  0  0  0  0
   97.5487   -6.0874   38.1817 C   0  0  0  0  0  0  0  0  0  0  0  0
   98.3880   -6.8469   37.6955 O   0  0  0  0  0  0  0  0  0  0  0  0
   95.7524   -6.1611   36.3481 C   0  0  0  0  0  0  0  0  0  0  0  0
   94.2786   -5.7190   36.3517 C   0  0  0  0  0  0  0  0  0  0  0  0
   93.3777   -6.6745   35.5648 C   0  0  0  0  0  0  0  0  0  0  0  0
   91.9050   -6.2641   35.5186 C   0  0  0  0  0  0  0  0  0  0  0  0
   91.2284   -6.7755   34.3137 N   0  0  0  0  0  4  0  0  0  0  0  0
   97.4235   -5.8740   39.5301 N   0  0  0  0  0  0  0  0  0  0  0  0
   97.9405   -4.7080   40.2712 C   0  0  2  0  0  0  0  0  0  0  0  0
   96.7889   -3.9948   41.0132 C   0  0  0  0  0  0  0  0  0  0  0  0
   95.7204   -4.5527   41.2513 O   0  0  0  0  0  0  0  0  0  0  0  0
   98.7751   -3.7098   39.4573 C   0  0  0  0  0  0  0  0  0  0  0  0
   99.5060   -2.8210   40.3181 O   0  0  0  0  0  0  0  0  0  0  0  0
   97.0620   -2.6854   41.3760 N   0  0  0  0  0  0  0  0  0  0  0  0
   96.0139   -1.9152   42.0821 C   0  0  2  0  0  0  0  0  0  0  0  0
   96.4263   -0.4784   42.4499 C   0  0  0  0  0  0  0  0  0  0  0  0
   95.7148    0.4847   42.1752 O   0  0  0  0  0  0  0  0  0  0  0  0
   95.6454   -2.6461   43.4033 C   0  0  2  0  0  0  0  0  0  0  0  0
   95.8835   -1.7610   44.5163 O   0  0  0  0  0  0  0  0  0  0  0  0
   96.4557   -3.9226   43.5867 C   0  0  0  0  0  0  0  0  0  0  0  0
   97.5077   -0.3684   43.2977 N   0  0  0  0  0  0  0  0  0  0  0  0
   98.4115    0.7719   43.2174 C   0  0  0  0  0  0  0  0  0  0  0  0
   99.2351    0.7833   41.9283 C   0  0  0  0  0  0  0  0  0  0  0  0
   98.7251    0.9727   40.8265 O   0  0  0  0  0  0  0  0  0  0  0  0
  100.5685    0.4964   42.0909 N   0  0  0  0  0  0  0  0  0  0  0  0
  101.4717    0.5067   40.9446 C   0  0  0  0  0  0  0  0  0  0  0  0
  101.6053    1.9428   40.4369 C   0  0  0  0  0  0  0  0  0  0  0  0
  101.8217    2.8968   41.1845 O   0  0  0  0  0  0  0  0  0  0  0  0
  101.4338    2.1289   39.0769 N   0  0  0  0  0  0  0  0  0  0  0  0
  102.1579    3.1935   38.3685 C   0  0  1  0  0  0  0  0  0  0  0  0
  103.0226    2.6255   37.2332 C   0  0  0  0  0  0  0  0  0  0  0  0
  102.3323    1.4786   36.4667 C   0  0  0  0  0  0  0  0  0  0  0  0
  102.9186    1.2303   35.0817 C   0  0  0  0  0  0  0  0  0  0  0  0
  104.4292    1.0525   35.0905 C   0  0  0  0  0  0  0  0  0  0  0  0
  105.0182    1.9447   34.1009 N   0  0  0  0  0  0  0  0  0  0  0  0
  106.0657    1.5439   33.3164 C   0  0  0  0  0  0  0  0  0  0  0  0
  106.7408    0.5438   33.5244 O   0  0  0  0  0  0  0  0  0  0  0  0
  106.3194    2.4591   32.1760 C   0  0  0  0  0  0  0  0  0  0  0  0
  107.3135    2.1919   31.3157 C   0  0  0  0  0  0  0  0  0  0  0  0
  107.7069    3.0671   30.1729 C   0  0  0  0  0  0  0  0  0  0  0  0
  101.1591    4.2887   37.8732 C   0  0  0  0  0  0  0  0  0  0  0  0
  100.9884    4.5950   36.6922 O   0  0  0  0  0  0  0  0  0  0  0  0
  100.5868    5.0005   38.9059 N   0  0  0  0  0  0  0  0  0  0  0  0
   99.1727    5.3055   38.9571 C   0  0  2  0  0  0  0  0  0  0  0  0
   98.7643    6.0619   40.2421 C   0  0  0  0  0  0  0  0  0  0  0  0
   97.5797    6.3865   40.3916 O   0  0  0  0  0  0  0  0  0  0  0  0
   98.3438    4.0669   38.7180 C   0  0  0  0  0  0  0  0  0  0  0  0
   99.6968    6.3668   41.2102 N   0  0  0  0  0  0  0  0  0  0  0  0
   99.2543    6.8761   42.5127 C   0  0  2  0  0  0  0  0  0  0  0  0
   98.9166    8.3795   42.4761 C   0  0  0  0  0  0  0  0  0  0  0  0
   99.1542    9.1883   41.5914 O   0  0  0  0  0  0  0  0  0  0  0  0
  100.4322    6.5748   43.4455 C   0  0  0  0  0  0  0  0  0  0  0  0
  101.6358    6.6705   42.5172 C   0  0  0  0  0  0  0  0  0  0  0  0
  101.1100    6.0068   41.2542 C   0  0  0  0  0  0  0  0  0  0  0  0
   98.2113    8.7666   43.5600 O   0  0  0  0  0  0  0  0  0  0  0  0
  103.1023  -14.1840   36.3874 H   0  0  0  0  0  0  0  0  0  0  0  0
   96.8347    0.1422   29.1630 H   0  0  0  0  0  0  0  0  0  0  0  0
  1  2  1  0
  2  3  1  0
  2  5  1  6
  3  4  2  0
  3  6  1  0
  6  7  1  0
  7  8  1  0
  7 10  1  1
  8  9  2  0
  8 17  1  0
 10 11  1  0
 11 12  1  0
 12 13  1  0
 13 14  1  0
 14 15  2  0
 14 16  1  0
 18 17  1  1
 18 19  1  0
 18 21  1  0
 19 20  2  0
 19 24  1  0
 21 22  1  0
 21 23  1  6
 24 25  1  0
 25 26  1  0
 25 28  1  6
 26 27  2  0
 26 33  1  0
 28 29  1  0
 29 30  1  0
 30 31  1  0
 31 32  1  0
 33 34  1  0
 34 35  1  0
 34 37  1  1
 35 36  2  0
 35 42  1  0
 37 38  1  0
 38 39  1  0
 39 40  2  0
 39 41  1  0
 43 42  1  1
 43 44  1  0
 43 46  1  0
 44 45  2  0
 44 49  1  0
 46 47  1  0
 46 48  1  1
 49 50  1  0
 50 51  1  0
 50 53  1  1
 51 52  2  0
 51 54  1  0
 54 55  1  0
 55 56  1  0
 55 58  1  6
 56 57  2  0
 56 65  1  0
 58 59  1  0
 59 60  1  0
 60 61  1  0
 61 62  1  0
 62 63  2  0
 62 64  1  0
 65 66  1  0
 66 67  1  0
 66 69  1  6
 67 68  2  0
 67 74  1  0
 69 70  1  0
 70 71  1  0
 71 72  1  0
 72 73  1  0
 74 75  1  0
 75 76  1  0
 75 78  1  6
 76 77  2  0
 76 80  1  0
 78 79  1  0
 81 80  1  1
 81 82  1  0
 81 84  1  0
 82 83  2  0
 82 87  1  0
 84 85  1  0
 84 86  1  1
 87 88  1  0
 88 89  1  0
 89 90  2  0
 89 91  1  0
 91 92  1  0
 92 93  1  0
 93 94  2  0
 93 95  1  0
 95 96  1  0
 96 97  1  6
 96107  1  0
 97 98  1  0
 98 99  1  0
 99100  1  0
100101  1  0
101102  1  0
102103  2  0
102104  1  0
104105  2  0
105106  1  0
107108  2  0
107109  1  0
109110  1  0
110111  1  0
110113  1  1
111112  2  0
111114  1  0
114115  1  0
114120  1  0
115116  1  6
115118  1  0
116117  2  0
116121  1  0
118119  1  0
119120  1  0
 15122  1  0
 63123  1  0
M  CHG  3   1   1  32   1  73   1
M  END
$$$$
