
     RDKit          3D

123123  0  0  0  0  0  0  0  0999 V2000
  100.4912  -17.6914   33.2424 N   0  0  0  0  0  4  0  0  0  0  0  0
   99.6056  -16.7929   32.4231 C   0  0  2  0  0  0  0  0  0  0  0  0
   99.7514  -15.3448   32.9168 C   0  0  0  0  0  0  0  0  0  0  0  0
   99.9039  -15.1163   34.1172 O   0  0  0  0  0  0  0  0  0  0  0  0
   98.1730  -17.2808   32.5780 C   0  0  0  0  0  0  0  0  0  0  0  0
   99.6824  -14.3784   31.9460 N   0  0  0  0  0  0  0  0  0  0  0  0
   99.7641  -12.9429   32.2215 C   0  0  2  0  0  0  0  0  0  0  0  0
   98.5889  -12.4775   33.1243 C   0  0  0  0  0  0  0  0  0  0  0  0
   97.4265  -12.5106   32.7175 O   0  0  0  0  0  0  0  0  0  0  0  0
  100.0314  -12.0915   30.9678 C   0  0  0  0  0  0  0  0  0  0  0  0
  100.4989  -10.6585   31.2807 C   0  0  0  0  0  0  0  0  0  0  0  0
  100.8297   -9.8558   30.0229 C   0  0  0  0  0  0  0  0  0  0  0  0
  102.2640   -9.8135   29.8074 N   0  0  0  0  0  0  0  0  0  0  0  0
  102.9471   -8.6639   30.0072 C   0  0  0  0  0  0  0  0  0  0  0  0
  104.2333   -8.5834   30.0235 N   0  0  0  0  0  0  0  0  0  0  0  0
  102.1682   -7.5756   30.1326 N   0  0  0  0  0  0  0  0  0  0  0  0
   98.9326  -12.2325   34.4361 N   0  0  0  0  0  0  0  0  0  0  0  0
   98.0200  -11.7680   35.5089 C   0  0  2  0  0  0  0  0  0  0  0  0
   98.7809  -10.9111   36.5435 C   0  0  0  0  0  0  0  0  0  0  0  0
   99.9296  -11.1836   36.8837 O   0  0  0  0  0  0  0  0  0  0  0  0
   97.0938  -12.8032   36.1791 C   0  0  2  0  0  0  0  0  0  0  0  0
   97.7656  -13.6434   37.1201 O   0  0  0  0  0  0  0  0  0  0  0  0
   96.3859  -13.6825   35.1527 C   0  0  0  0  0  0  0  0  0  0  0  0
   98.0770   -9.8283   37.0170 N   0  0  0  0  0  0  0  0  0  0  0  0
   98.3723   -9.0937   38.2369 C   0  0  2  0  0  0  0  0  0  0  0  0
   99.1831   -9.9297   39.2535 C   0  0  0  0  0  0  0  0  0  0  0  0
   98.6960  -10.6196   40.1384 O   0  0  0  0  0  0  0  0  0  0  0  0
   97.1888   -8.3638   38.9008 C   0  0  0  0  0  0  0  0  0  0  0  0
   97.5995   -6.9856   39.4372 C   0  0  0  0  0  0  0  0  0  0  0  0
   97.4318   -6.7978   40.9514 C   0  0  0  0  0  0  0  0  0  0  0  0
   96.8225   -7.9921   41.6719 C   0  0  0  0  0  0  0  0  0  0  0  0
   97.6846   -8.3733   42.8095 N   0  0  0  0  0  4  0  0  0  0  0  0
  100.5489   -9.8823   39.0247 N   0  0  0  0  0  0  0  0  0  0  0  0
  101.5253  -10.5767   39.8718 C   0  0  2  0  0  0  0  0  0  0  0  0
  102.9927  -10.4066   39.3885 C   0  0  0  0  0  0  0  0  0  0  0  0
  103.9420  -11.0039   39.8994 O   0  0  0  0  0  0  0  0  0  0  0  0
  101.1085  -12.0168   40.2049 C   0  0  0  0  0  0  0  0  0  0  0  0
  102.2281  -12.9627   40.6603 C   0  0  0  0  0  0  0  0  0  0  0  0
  101.9749  -14.4180   40.3242 C   0  0  0  0  0  0  0  0  0  0  0  0
  102.7337  -15.3391   40.6147 O   0  0  0  0  0  0  0  0  0  0  0  0
  100.8183  -14.6615   39.6363 N   0  0  0  0  0  0  0  0  0  0  0  0
  103.2053   -9.3688   38.5056 N   0  0  0  0  0  0  0  0  0  0  0  0
  104.5711   -9.1001   38.0086 C   0  0  2  0  0  0  0  0  0  0  0  0
  104.6410   -7.8735   37.0725 C   0  0  0  0  0  0  0  0  0  0  0  0
  105.6148   -7.6468   36.3654 O   0  0  0  0  0  0  0  0  0  0  0  0
  105.1099  -10.3360   37.2425 C   0  0  2  0  0  0  0  0  0  0  0  0
  104.2935  -10.5624   36.0696 O   0  0  0  0  0  0  0  0  0  0  0  0
  105.1252  -11.5696   38.1351 C   0  0  0  0  0  0  0  0  0  0  0  0
  103.4777   -7.1345   37.0299 N   0  0  0  0  0  0  0  0  0  0  0  0
  103.3039   -5.9209   36.2383 C   0  0  2  0  0  0  0  0  0  0  0  0
  101.8446   -5.5069   36.5145 C   0  0  0  0  0  0  0  0  0  0  0  0
  101.2500   -4.6523   35.8492 O   0  0  0  0  0  0  0  0  0  0  0  0
  103.5848   -6.0607   34.7444 C   0  0  0  0  0  0  0  0  0  0  0  0
  101.3136   -5.9924   37.6947 N   0  0  0  0  0  0  0  0  0  0  0  0
  100.2447   -5.3243   38.4339 C   0  0  2  0  0  0  0  0  0  0  0  0
  100.7066   -3.9847   39.0520 C   0  0  0  0  0  0  0  0  0  0  0  0
  100.0460   -2.9516   38.9788 O   0  0  0  0  0  0  0  0  0  0  0  0
   99.5775   -6.2467   39.4644 C   0  0  0  0  0  0  0  0  0  0  0  0
   98.0711   -6.4878   39.3123 C   0  0  0  0  0  0  0  0  0  0  0  0
   97.1775   -5.2588   39.4845 C   0  0  0  0  0  0  0  0  0  0  0  0
   95.7855   -5.6814   39.4234 N   0  0  0  0  0  0  0  0  0  0  0  0
   95.0859   -6.1438   40.4851 C   0  0  0  0  0  0  0  0  0  0  0  0
   95.5409   -6.6261   41.5855 N   0  0  0  0  0  0  0  0  0  0  0  0
   93.7653   -6.0099   40.2841 N   0  0  0  0  0  0  0  0  0  0  0  0
  101.9677   -4.0055   39.6035 N   0  0  0  0  0  0  0  0  0  0  0  0
  102.5362   -2.9275   40.4211 C   0  0  2  0  0  0  0  0  0  0  0  0
  103.4048   -1.8845   39.6750 C   0  0  0  0  0  0  0  0  0  0  0  0
  103.3228   -0.6882   39.9578 O   0  0  0  0  0  0  0  0  0  0  0  0
  103.2207   -3.4612   41.6936 C   0  0  0  0  0  0  0  0  0  0  0  0
  102.1872   -3.9489   42.7240 C   0  0  0  0  0  0  0  0  0  0  0  0
  102.8386   -4.4533   44.0143 C   0  0  0  0  0  0  0  0  0  0  0  0
  101.8526   -4.9776   45.0596 C   0  0  0  0  0  0  0  0  0  0  0  0
  102.4035   -6.1176   45.8132 N   0  0  0  0  0  4  0  0  0  0  0  0
  104.2852   -2.3761   38.7463 N   0  0  0  0  0  0  0  0  0  0  0  0
  105.1242   -1.5691   37.8403 C   0  0  2  0  0  0  0  0  0  0  0  0
  104.2358   -0.7720   36.8600 C   0  0  0  0  0  0  0  0  0  0  0  0
  104.5496    0.3442   36.4537 O   0  0  0  0  0  0  0  0  0  0  0  0
  106.2290   -2.3278   37.0925 C   0  0  0  0  0  0  0  0  0  0  0  0
  105.9001   -2.4868   35.7026 O   0  0  0  0  0  0  0  0  0  0  0  0
  103.0661   -1.4164   36.4896 N   0  0  0  0  0  0  0  0  0  0  0  0
  102.1319   -0.7163   35.5799 C   0  0  2  0  0  0  0  0  0  0  0  0
  100.7993   -0.3095   36.2346 C   0  0  0  0  0  0  0  0  0  0  0  0
   99.7763   -0.9704   36.0741 O   0  0  0  0  0  0  0  0  0  0  0  0
  101.7961   -1.6444   34.3793 C   0  0  2  0  0  0  0  0  0  0  0  0
  101.2020   -2.8616   34.8735 O   0  0  0  0  0  0  0  0  0  0  0  0
  103.0364   -1.9798   33.5615 C   0  0  0  0  0  0  0  0  0  0  0  0
  100.8821    0.6887   37.1818 N   0  0  0  0  0  0  0  0  0  0  0  0
   99.6812    1.3200   37.7138 C   0  0  0  0  0  0  0  0  0  0  0  0
   99.2283    2.5221   36.8830 C   0  0  0  0  0  0  0  0  0  0  0  0
   99.9459    3.5035   36.7053 O   0  0  0  0  0  0  0  0  0  0  0  0
   97.9392    2.4489   36.4144 N   0  0  0  0  0  0  0  0  0  0  0  0
   96.8352    2.9897   37.2010 C   0  0  0  0  0  0  0  0  0  0  0  0
   96.9396    4.5152   37.2108 C   0  0  0  0  0  0  0  0  0  0  0  0
   97.6341    5.1410   36.4097 O   0  0  0  0  0  0  0  0  0  0  0  0
   96.2314    5.1700   38.2024 N   0  0  0  0  0  0  0  0  0  0  0  0
   96.7346    6.4243   38.7796 C   0  0  1  0  0  0  0  0  0  0  0  0
   97.8751    6.1667   39.7756 C   0  0  0  0  0  0  0  0  0  0  0  0
   98.3757    7.4535   40.4636 C   0  0  0  0  0  0  0  0  0  0  0  0
   99.2078    7.1929   41.7139 C   0  0  0  0  0  0  0  0  0  0  0  0
  100.6997    7.3951   41.4970 C   0  0  0  0  0  0  0  0  0  0  0  0
  100.9368    8.7702   41.0787 N   0  0  0  0  0  0  0  0  0  0  0  0
  101.2300    9.7497   41.9886 C   0  0  0  0  0  0  0  0  0  0  0  0
  101.2050    9.5937   43.2029 O   0  0  0  0  0  0  0  0  0  0  0  0
  101.5750   11.0461   41.3542 C   0  0  0  0  0  0  0  0  0  0  0  0
  101.9092   12.0951   42.1209 C   0  0  0  0  0  0  0  0  0  0  0  0
  100.9358   12.9575   42.8525 C   0  0  0  0  0  0  0  0  0  0  0  0
   97.1416    7.4167   37.6430 C   0  0  0  0  0  0  0  0  0  0  0  0
   98.0172    7.1968   36.8047 O   0  0  0  0  0  0  0  0  0  0  0  0
   96.5275    8.6458   37.7574 N   0  0  0  0  0  0  0  0  0  0  0  0
   96.6921    9.6974   36.7764 C   0  0  2  0  0  0  0  0  0  0  0  0
   96.0522   11.0355   37.2125 C   0  0  0  0  0  0  0  0  0  0  0  0
   94.9516   11.3507   36.7432 O   0  0  0  0  0  0  0  0  0  0  0  0
   96.2282    9.2428   35.4139 C   0  0  0  0  0  0  0  0  0  0  0  0
   96.6882   11.8639   38.1120 N   0  0  0  0  0  0  0  0  0  0  0  0
   96.2049   11.9453   39.4945 C   0  0  2  0  0  0  0  0  0  0  0  0
   94.9755   12.8639   39.6380 C   0  0  0  0  0  0  0  0  0  0  0  0
   94.8986   13.9443   40.2037 O   0  0  0  0  0  0  0  0  0  0  0  0
   97.4118   12.4753   40.2760 C   0  0  0  0  0  0  0  0  0  0  0  0
   98.1275   13.3446   39.2504 C   0  0  0  0  0  0  0  0  0  0  0  0
   97.9884   12.5135   37.9847 C   0  0  0  0  0  0  0  0  0  0  0  0
   93.9035   12.3825   38.9737 O   0  0  0  0  0  0  0  0  0  0  0  0
  104.6027   -9.5331   29.8496 H   0  0  0  0  0  0  0  0  0  0  0  0
   96.1856   -7.3849   41.3489 H   0  0  0  0  0  0  0  0  0  0  0  0
  1  2  1  0
  2  3  1  0
  2  5  1  1
  3  4  2  0
  3  6  1  0
  6  7  1  0
  7  8  1  0
  7 10  1  6
  8  9  2  0
  8 17  1  0
 10 11  1  0
 11 12  1  0
 12 13  1  0
 13 14  1  0
 14 15  2  0
 14 16  1  0
 18 17  1  1
 18 19  1  0
 18 21  1  0
 19 20  2  0
 19 24  1  0
 21 22  1  0
 21 23  1  6
 24 25  1  0
 25 26  1  0
 25 28  1  1
 26 27  2  0
 26 33  1  0
 28 29  1  0
 29 30  1  0
 30 31  1  0
 31 32  1  0
 33 34  1  0
 34 35  1  0
 34 37  1  6
 35 36  2  0
 35 42  1  0
 37 38  1  0
 38 39  1  0
 39 40  2  0
 39 41  1  0
 43 42  1  6
 43 44  1  0
 43 46  1  0
 44 45  2  0
 44 49  1  0
 46 47  1  0
 46 48  1  1
 49 50  1  0
 50 51  1  0
 50 53  1  6
 51 52  2  0
 51 54  1  0
 54 55  1  0
 55 56  1  0
 55 58  1  1
 56 57  2  0
 56 65  1  0
 58 59  1  0
 59 60  1  0
 60 61  1  0
 61 62  1  0
 62 63  2  0
 62 64  1  0
 65 66  1  0
 66 67  1  0
 66 69  1  1
 67 68  2  0
 67 74  1  0
 69 70  1  0
 70 71  1  0
 71 72  1  0
 72 73  1  0
 74 75  1  0
 75 76  1  0
 75 78  1  6
 76 77  2  0
 76 80  1  0
 78 79  1  0
 81 80  1  1
 81 82  1  0
 81 84  1  0
 82 83  2  0
 82 87  1  0
 84 85  1  0
 84 86  1  1
 87 88  1  0
 88 89  1  0
 89 90  2  0
 89 91  1  0
 91 92  1  0
 92 93  1  0
 93 94  2  0
 93 95  1  0
 95 96  1  0
 96 97  1  1
 96107  1  0
 97 98  1  0
 98 99  1  0
 99100  1  0
100101  1  0
101102  1  0
102103  2  0
102104  1  0
104105  2  0
105106  1  0
107108  2  0
107109  1  0
109110  1  0
110111  1  0
110113  1  6
111112  2  0
111114  1  0
114115  1  0
114120  1  0
115116  1  6
115118  1  0
116117  2  0
116121  1  0
118119  1  0
119120  1  0
 15122  1  0
 63123  1  0
M  CHG  3   1   1  32   1  73   1
M  END
$$$$
