
     RDKit          3D

123123  0  0  0  0  0  0  0  0999 V2000
10750.5527-41321.9766 4509.0625 N   0  0  0  0  0  4  0  0  0  0  0  0
10750.3682-41322.7891 4510.3301 C   0  0  2  0  0  0  0  0  0  0  0  0
10751.7012-41322.9883 4511.0278 C   0  0  0  0  0  0  0  0  0  0  0  0
10751.7705-41323.0859 4512.2549 O   0  0  0  0  0  0  0  0  0  0  0  0
10749.7539-41324.1367 4509.9507 C   0  0  0  0  0  0  0  0  0  0  0  0
10752.8184-41322.9727 4510.2202 N   0  0  0  0  0  0  0  0  0  0  0  0
10753.9775-41323.8008 4510.4370 C   0  0  2  0  0  0  0  0  0  0  0  0
10754.6768-41323.4375 4511.7837 C   0  0  0  0  0  0  0  0  0  0  0  0
10755.4844-41322.4844 4511.8379 O   0  0  0  0  0  0  0  0  0  0  0  0
10754.9346-41323.8828 4509.2383 C   0  0  0  0  0  0  0  0  0  0  0  0
10754.9482-41322.5859 4508.3599 C   0  0  0  0  0  0  0  0  0  0  0  0
10755.8779-41322.7227 4507.1519 C   0  0  0  0  0  0  0  0  0  0  0  0
10756.1650-41321.4102 4506.6245 N   0  0  0  0  0  0  0  0  0  0  0  0
10757.3496-41320.7617 4506.9292 C   0  0  0  0  0  0  0  0  0  0  0  0
10757.5996-41319.5312 4506.6304 N   0  0  0  0  0  0  0  0  0  0  0  0
10758.2217-41321.5547 4507.5908 N   0  0  0  0  0  0  0  0  0  0  0  0
10754.2100-41324.1094 4512.8887 N   0  0  0  0  0  0  0  0  0  0  0  0
10755.0586-41324.7227 4513.9517 C   0  0  2  0  0  0  0  0  0  0  0  0
10754.9746-41326.2695 4513.8945 C   0  0  0  0  0  0  0  0  0  0  0  0
10754.0664-41326.8086 4513.2524 O   0  0  0  0  0  0  0  0  0  0  0  0
10754.9766-41324.1914 4515.3750 C   0  0  2  0  0  0  0  0  0  0  0  0
10754.3457-41325.0742 4516.2905 O   0  0  0  0  0  0  0  0  0  0  0  0
10754.2539-41322.8516 4515.4473 C   0  0  0  0  0  0  0  0  0  0  0  0
10755.9395-41326.9531 4514.6001 N   0  0  0  0  0  0  0  0  0  0  0  0
10756.6602-41328.1055 4514.1162 C   0  0  2  0  0  0  0  0  0  0  0  0
10756.4014-41329.3828 4514.9517 C   0  0  0  0  0  0  0  0  0  0  0  0
10755.7793-41329.3906 4516.0054 O   0  0  0  0  0  0  0  0  0  0  0  0
10758.1758-41327.9102 4513.8516 C   0  0  0  0  0  0  0  0  0  0  0  0
10758.4561-41327.4766 4512.4097 C   0  0  0  0  0  0  0  0  0  0  0  0
10759.8018-41327.9453 4511.8262 C   0  0  0  0  0  0  0  0  0  0  0  0
10760.0918-41327.4375 4510.4160 C   0  0  0  0  0  0  0  0  0  0  0  0
10759.9727-41325.9688 4510.3447 N   0  0  0  0  0  4  0  0  0  0  0  0
10756.8965-41330.5312 4514.3613 N   0  0  0  0  0  0  0  0  0  0  0  0
10756.6221-41331.8594 4514.9146 C   0  0  2  0  0  0  0  0  0  0  0  0
10755.1963-41332.0312 4515.4717 C   0  0  0  0  0  0  0  0  0  0  0  0
10754.9023-41331.8008 4516.6431 O   0  0  0  0  0  0  0  0  0  0  0  0
10757.7627-41332.3750 4515.8335 C   0  0  0  0  0  0  0  0  0  0  0  0
10759.1797-41332.3516 4515.2266 C   0  0  0  0  0  0  0  0  0  0  0  0
10760.2256-41331.7695 4516.1270 C   0  0  0  0  0  0  0  0  0  0  0  0
10760.5879-41330.5820 4516.0542 O   0  0  0  0  0  0  0  0  0  0  0  0
10760.7236-41332.6133 4517.0625 N   0  0  0  0  0  0  0  0  0  0  0  0
10754.3027-41332.6797 4514.6431 N   0  0  0  0  0  0  0  0  0  0  0  0
10753.2725-41333.5469 4515.2197 C   0  0  2  0  0  0  0  0  0  0  0  0
10753.4658-41335.0586 4514.8394 C   0  0  0  0  0  0  0  0  0  0  0  0
10753.7275-41335.4023 4513.6899 O   0  0  0  0  0  0  0  0  0  0  0  0
10751.8594-41333.1328 4514.7310 C   0  0  2  0  0  0  0  0  0  0  0  0
10751.2617-41332.2812 4515.7334 O   0  0  0  0  0  0  0  0  0  0  0  0
10750.9648-41334.3320 4514.4561 C   0  0  0  0  0  0  0  0  0  0  0  0
10753.4707-41335.9102 4515.9146 N   0  0  0  0  0  0  0  0  0  0  0  0
10752.4893-41335.8750 4516.9946 C   0  0  2  0  0  0  0  0  0  0  0  0
10753.3066-41336.1875 4518.2573 C   0  0  0  0  0  0  0  0  0  0  0  0
10754.3906-41335.6406 4518.5054 O   0  0  0  0  0  0  0  0  0  0  0  0
10751.3018-41336.8281 4516.8472 C   0  0  0  0  0  0  0  0  0  0  0  0
10752.8672-41337.2656 4518.9941 N   0  0  0  0  0  0  0  0  0  0  0  0
10753.1387-41337.4336 4520.4219 C   0  0  2  0  0  0  0  0  0  0  0  0
10753.0303-41338.9102 4520.8662 C   0  0  0  0  0  0  0  0  0  0  0  0
10752.1338-41339.3359 4521.5908 O   0  0  0  0  0  0  0  0  0  0  0  0
10752.2959-41336.5000 4521.2954 C   0  0  0  0  0  0  0  0  0  0  0  0
10750.7744-41336.7500 4521.3335 C   0  0  0  0  0  0  0  0  0  0  0  0
10750.0869-41336.4336 4522.6562 C   0  0  0  0  0  0  0  0  0  0  0  0
10748.8311-41335.7578 4522.3716 N   0  0  0  0  0  0  0  0  0  0  0  0
10747.7012-41336.3750 4521.9800 C   0  0  0  0  0  0  0  0  0  0  0  0
10746.7393-41335.9062 4521.2480 N   0  0  0  0  0  0  0  0  0  0  0  0
10747.6582-41337.6406 4522.4229 N   0  0  0  0  0  0  0  0  0  0  0  0
10754.0771-41339.7109 4520.4775 N   0  0  0  0  0  0  0  0  0  0  0  0
10753.9424-41341.0898 4519.9961 C   0  0  2  0  0  0  0  0  0  0  0  0
10755.1309-41342.0391 4520.2920 C   0  0  0  0  0  0  0  0  0  0  0  0
10756.1113-41342.0586 4519.5322 O   0  0  0  0  0  0  0  0  0  0  0  0
10753.4863-41341.1445 4518.5366 C   0  0  0  0  0  0  0  0  0  0  0  0
10752.5605-41342.3711 4518.2822 C   0  0  0  0  0  0  0  0  0  0  0  0
10752.1406-41342.4844 4516.8174 C   0  0  0  0  0  0  0  0  0  0  0  0
10751.3418-41343.7812 4516.5059 C   0  0  0  0  0  0  0  0  0  0  0  0
10750.5010-41344.1914 4517.6343 N   0  0  0  0  0  4  0  0  0  0  0  0
10755.0498-41342.7969 4521.4307 N   0  0  0  0  0  0  0  0  0  0  0  0
10756.1914-41343.2812 4522.2222 C   0  0  2  0  0  0  0  0  0  0  0  0
10756.5391-41344.7422 4521.8535 C   0  0  0  0  0  0  0  0  0  0  0  0
10757.0186-41345.0273 4520.7612 O   0  0  0  0  0  0  0  0  0  0  0  0
10756.0537-41343.1328 4523.7524 C   0  0  0  0  0  0  0  0  0  0  0  0
10755.8057-41344.3945 4524.3735 O   0  0  0  0  0  0  0  0  0  0  0  0
10756.2529-41345.6758 4522.8325 N   0  0  0  0  0  0  0  0  0  0  0  0
10756.7812-41347.0508 4522.6812 C   0  0  2  0  0  0  0  0  0  0  0  0
10756.6650-41347.8633 4523.9834 C   0  0  0  0  0  0  0  0  0  0  0  0
10756.6826-41347.3320 4525.0952 O   0  0  0  0  0  0  0  0  0  0  0  0
10758.2900-41347.0000 4522.2788 C   0  0  2  0  0  0  0  0  0  0  0  0
10758.7227-41348.3086 4522.0073 O   0  0  0  0  0  0  0  0  0  0  0  0
10759.1279-41346.3672 4523.3862 C   0  0  0  0  0  0  0  0  0  0  0  0
10756.3730-41349.1953 4523.8174 N   0  0  0  0  0  0  0  0  0  0  0  0
10754.9697-41349.6602 4523.8154 C   0  0  0  0  0  0  0  0  0  0  0  0
10754.7363-41350.8555 4524.7412 C   0  0  0  0  0  0  0  0  0  0  0  0
10754.5430-41350.6992 4525.9585 O   0  0  0  0  0  0  0  0  0  0  0  0
10754.7861-41352.0820 4524.1475 N   0  0  0  0  0  0  0  0  0  0  0  0
10755.3174-41353.2109 4524.8530 C   0  0  0  0  0  0  0  0  0  0  0  0
10754.8330-41353.1602 4526.3262 C   0  0  0  0  0  0  0  0  0  0  0  0
10753.6416-41353.0078 4526.6089 O   0  0  0  0  0  0  0  0  0  0  0  0
10755.8018-41353.3281 4527.3018 N   0  0  0  0  0  0  0  0  0  0  0  0
10755.8721-41354.5273 4528.1348 C   0  0  1  0  0  0  0  0  0  0  0  0
10754.9746-41355.6250 4527.5669 C   0  0  0  0  0  0  0  0  0  0  0  0
10753.9131-41356.1523 4528.5957 C   0  0  0  0  0  0  0  0  0  0  0  0
10753.2656-41357.4688 4528.1909 C   0  0  0  0  0  0  0  0  0  0  0  0
10751.7656-41357.4766 4528.3682 C   0  0  0  0  0  0  0  0  0  0  0  0
10751.1543-41358.0703 4527.2197 N   0  0  0  0  0  0  0  0  0  0  0  0
10749.9883-41357.5781 4526.6875 C   0  0  0  0  0  0  0  0  0  0  0  0
10749.4717-41356.5625 4527.0244 O   0  0  0  0  0  0  0  0  0  0  0  0
10749.4258-41358.4336 4525.6128 C   0  0  0  0  0  0  0  0  0  0  0  0
10748.9893-41357.8984 4524.4663 C   0  0  0  0  0  0  0  0  0  0  0  0
10747.5859-41357.7539 4524.0840 C   0  0  0  0  0  0  0  0  0  0  0  0
10757.3574-41354.9727 4528.2915 C   0  0  0  0  0  0  0  0  0  0  0  0
10758.0039-41355.5625 4527.4360 O   0  0  0  0  0  0  0  0  0  0  0  0
10757.8564-41354.7383 4529.5591 N   0  0  0  0  0  0  0  0  0  0  0  0
10759.2129-41355.0781 4529.9297 C   0  0  2  0  0  0  0  0  0  0  0  0
10759.3652-41356.5742 4530.3242 C   0  0  0  0  0  0  0  0  0  0  0  0
10758.7051-41357.0078 4531.2729 O   0  0  0  0  0  0  0  0  0  0  0  0
10759.7178-41354.1406 4531.0078 C   0  0  0  0  0  0  0  0  0  0  0  0
10760.2354-41357.3789 4529.6484 N   0  0  0  0  0  0  0  0  0  0  0  0
10760.3301-41358.8125 4530.0522 C   0  0  2  0  0  0  0  0  0  0  0  0
10761.2510-41358.9961 4531.2759 C   0  0  0  0  0  0  0  0  0  0  0  0
10761.0811-41358.5859 4532.4067 O   0  0  0  0  0  0  0  0  0  0  0  0
10760.8633-41359.5586 4528.8062 C   0  0  0  0  0  0  0  0  0  0  0  0
10761.7168-41358.4258 4528.1572 C   0  0  0  0  0  0  0  0  0  0  0  0
10760.8672-41357.1797 4528.3569 C   0  0  0  0  0  0  0  0  0  0  0  0
10762.3174-41359.7539 4530.9629 O   0  0  0  0  0  0  0  0  0  0  0  0
10757.8975-41319.0977 4507.5127 H   0  0  0  0  0  0  0  0  0  0  0  0
10746.0967-41335.4141 4521.8628 H   0  0  0  0  0  0  0  0  0  0  0  0
  1  2  1  0
  2  3  1  0
  2  5  1  6
  3  4  2  0
  3  6  1  0
  6  7  1  0
  7  8  1  0
  7 10  1  6
  8  9  2  0
  8 17  1  0
 10 11  1  0
 11 12  1  0
 12 13  1  0
 13 14  1  0
 14 15  2  0
 14 16  1  0
 18 17  1  6
 18 19  1  0
 18 21  1  0
 19 20  2  0
 19 24  1  0
 21 22  1  0
 21 23  1  6
 24 25  1  0
 25 26  1  0
 25 28  1  1
 26 27  2  0
 26 33  1  0
 28 29  1  0
 29 30  1  0
 30 31  1  0
 31 32  1  0
 33 34  1  0
 34 35  1  0
 34 37  1  1
 35 36  2  0
 35 42  1  0
 37 38  1  0
 38 39  1  0
 39 40  2  0
 39 41  1  0
 43 42  1  6
 43 44  1  0
 43 46  1  0
 44 45  2  0
 44 49  1  0
 46 47  1  0
 46 48  1  1
 49 50  1  0
 50 51  1  0
 50 53  1  6
 51 52  2  0
 51 54  1  0
 54 55  1  0
 55 56  1  0
 55 58  1  1
 56 57  2  0
 56 65  1  0
 58 59  1  0
 59 60  1  0
 60 61  1  0
 61 62  1  0
 62 63  2  0
 62 64  1  0
 65 66  1  0
 66 67  1  0
 66 69  1  6
 67 68  2  0
 67 74  1  0
 69 70  1  0
 70 71  1  0
 71 72  1  0
 72 73  1  0
 74 75  1  0
 75 76  1  0
 75 78  1  1
 76 77  2  0
 76 80  1  0
 78 79  1  0
 81 80  1  1
 81 82  1  0
 81 84  1  0
 82 83  2  0
 82 87  1  0
 84 85  1  0
 84 86  1  1
 87 88  1  0
 88 89  1  0
 89 90  2  0
 89 91  1  0
 91 92  1  0
 92 93  1  0
 93 94  2  0
 93 95  1  0
 95 96  1  0
 96 97  1  6
 96107  1  0
 97 98  1  0
 98 99  1  0
 99100  1  0
100101  1  0
101102  1  0
102103  2  0
102104  1  0
104105  2  0
105106  1  0
107108  2  0
107109  1  0
109110  1  0
110111  1  0
110113  1  1
111112  2  0
111114  1  0
114115  1  0
114120  1  0
115116  1  1
115118  1  0
116117  2  0
116121  1  0
118119  1  0
119120  1  0
 15122  1  0
 63123  1  0
M  CHG  3   1   1  32   1  73   1
M  END
$$$$
