
     RDKit          3D

123123  0  0  0  0  0  0  0  0999 V2000
   92.7391  -10.6580   45.1253 N   0  0  0  0  0  4  0  0  0  0  0  0
   93.7703  -10.0090   44.2432 C   0  0  2  0  0  0  0  0  0  0  0  0
   93.3815  -10.2107   42.7701 C   0  0  0  0  0  0  0  0  0  0  0  0
   93.2746  -11.3487   42.3120 O   0  0  0  0  0  0  0  0  0  0  0  0
   95.1157  -10.6518   44.5456 C   0  0  0  0  0  0  0  0  0  0  0  0
   93.1908   -9.0620   42.0454 N   0  0  0  0  0  0  0  0  0  0  0  0
   92.9023   -9.0454   40.6102 C   0  0  2  0  0  0  0  0  0  0  0  0
   93.9982   -8.2719   39.8269 C   0  0  0  0  0  0  0  0  0  0  0  0
   94.1309   -7.0543   39.9594 O   0  0  0  0  0  0  0  0  0  0  0  0
   91.4460   -8.6723   40.2810 C   0  0  0  0  0  0  0  0  0  0  0  0
   90.6800   -8.0611   41.4683 C   0  0  0  0  0  0  0  0  0  0  0  0
   89.2609   -7.6305   41.0986 C   0  0  0  0  0  0  0  0  0  0  0  0
   89.2817   -6.3719   40.3767 N   0  0  0  0  0  0  0  0  0  0  0  0
   89.0264   -5.2131   41.0247 C   0  0  0  0  0  0  0  0  0  0  0  0
   88.0812   -5.0632   41.8879 N   0  0  0  0  0  0  0  0  0  0  0  0
   89.8879   -4.2215   40.7390 N   0  0  0  0  0  0  0  0  0  0  0  0
   94.9016   -9.0708   39.1602 N   0  0  0  0  0  0  0  0  0  0  0  0
   95.8599   -8.6289   38.1180 C   0  0  2  0  0  0  0  0  0  0  0  0
   95.1134   -8.1403   36.8580 C   0  0  0  0  0  0  0  0  0  0  0  0
   93.8864   -8.1470   36.7947 O   0  0  0  0  0  0  0  0  0  0  0  0
   97.0413   -9.5576   37.7710 C   0  0  2  0  0  0  0  0  0  0  0  0
   96.6435  -10.8973   37.4713 O   0  0  0  0  0  0  0  0  0  0  0  0
   98.0844   -9.5919   38.8839 C   0  0  0  0  0  0  0  0  0  0  0  0
   95.9311   -7.6862   35.8495 N   0  0  0  0  0  0  0  0  0  0  0  0
   95.4907   -7.2461   34.5353 C   0  0  2  0  0  0  0  0  0  0  0  0
   95.7824   -8.2871   33.4304 C   0  0  0  0  0  0  0  0  0  0  0  0
   95.0934   -8.4626   32.4351 O   0  0  0  0  0  0  0  0  0  0  0  0
   95.9060   -5.8233   34.1144 C   0  0  0  0  0  0  0  0  0  0  0  0
   94.7311   -5.0440   33.5076 C   0  0  0  0  0  0  0  0  0  0  0  0
   94.0300   -4.0698   34.4644 C   0  0  0  0  0  0  0  0  0  0  0  0
   94.8740   -2.8717   34.8754 C   0  0  0  0  0  0  0  0  0  0  0  0
   94.1958   -1.6261   34.4614 N   0  0  0  0  0  4  0  0  0  0  0  0
   96.9657   -8.9776   33.6376 N   0  0  0  0  0  0  0  0  0  0  0  0
   97.6796   -9.6791   32.5645 C   0  0  2  0  0  0  0  0  0  0  0  0
   98.0909  -11.1296   32.9426 C   0  0  0  0  0  0  0  0  0  0  0  0
   97.6113  -11.7354   33.9028 O   0  0  0  0  0  0  0  0  0  0  0  0
   98.7900   -8.8278   31.9312 C   0  0  0  0  0  0  0  0  0  0  0  0
   98.6051   -8.4556   30.4538 C   0  0  0  0  0  0  0  0  0  0  0  0
   97.4728   -7.4804   30.2049 C   0  0  0  0  0  0  0  0  0  0  0  0
   96.6387   -7.1568   31.0464 O   0  0  0  0  0  0  0  0  0  0  0  0
   97.4141   -6.9714   28.9370 N   0  0  0  0  0  0  0  0  0  0  0  0
   99.1976  -11.6190   32.2813 N   0  0  0  0  0  0  0  0  0  0  0  0
   99.8838  -12.8226   32.7962 C   0  0  2  0  0  0  0  0  0  0  0  0
  100.2796  -12.7000   34.2842 C   0  0  0  0  0  0  0  0  0  0  0  0
   99.6677  -11.9823   35.0653 O   0  0  0  0  0  0  0  0  0  0  0  0
  101.1645  -13.0992   31.9668 C   0  0  2  0  0  0  0  0  0  0  0  0
  102.1976  -12.1658   32.3604 O   0  0  0  0  0  0  0  0  0  0  0  0
  100.8833  -12.9942   30.4739 C   0  0  0  0  0  0  0  0  0  0  0  0
  101.3003  -13.5458   34.6637 N   0  0  0  0  0  0  0  0  0  0  0  0
  101.8346  -13.6321   36.0189 C   0  0  2  0  0  0  0  0  0  0  0  0
  102.5091  -12.2628   36.2368 C   0  0  0  0  0  0  0  0  0  0  0  0
  102.0125  -11.3710   36.9329 O   0  0  0  0  0  0  0  0  0  0  0  0
  102.7956  -14.7895   36.2777 C   0  0  0  0  0  0  0  0  0  0  0  0
  103.5989  -12.0132   35.4241 N   0  0  0  0  0  0  0  0  0  0  0  0
  104.3860  -10.7834   35.4847 C   0  0  2  0  0  0  0  0  0  0  0  0
  103.8693   -9.7064   34.5033 C   0  0  0  0  0  0  0  0  0  0  0  0
  104.6025   -8.8701   33.9818 O   0  0  0  0  0  0  0  0  0  0  0  0
  105.8921  -11.0416   35.3324 C   0  0  0  0  0  0  0  0  0  0  0  0
  106.3531  -12.5037   35.3400 C   0  0  0  0  0  0  0  0  0  0  0  0
  107.8638  -12.7278   35.2610 C   0  0  0  0  0  0  0  0  0  0  0  0
  108.5364  -11.4531   35.4683 N   0  0  0  0  0  0  0  0  0  0  0  0
  109.4200  -11.2149   36.4648 C   0  0  0  0  0  0  0  0  0  0  0  0
  109.7401  -10.0860   36.9877 N   0  0  0  0  0  0  0  0  0  0  0  0
  109.9499  -12.3613   36.9198 N   0  0  0  0  0  0  0  0  0  0  0  0
  102.5032   -9.6840   34.3347 N   0  0  0  0  0  0  0  0  0  0  0  0
  101.7402   -8.5162   33.8788 C   0  0  2  0  0  0  0  0  0  0  0  0
  100.2807   -8.4085   34.3858 C   0  0  0  0  0  0  0  0  0  0  0  0
   99.4724   -9.3090   34.1544 O   0  0  0  0  0  0  0  0  0  0  0  0
  101.8516   -8.3062   32.3569 C   0  0  0  0  0  0  0  0  0  0  0  0
  100.6088   -7.5926   31.7967 C   0  0  0  0  0  0  0  0  0  0  0  0
  100.8017   -7.1272   30.3510 C   0  0  0  0  0  0  0  0  0  0  0  0
   99.6082   -6.3725   29.7631 C   0  0  0  0  0  0  0  0  0  0  0  0
   99.7670   -6.1310   28.3182 N   0  0  0  0  0  4  0  0  0  0  0  0
   99.9754   -7.3021   35.1354 N   0  0  0  0  0  0  0  0  0  0  0  0
   99.1118   -7.2810   36.3312 C   0  0  2  0  0  0  0  0  0  0  0  0
   98.7721   -5.8247   36.7175 C   0  0  0  0  0  0  0  0  0  0  0  0
   98.5187   -4.9673   35.8748 O   0  0  0  0  0  0  0  0  0  0  0  0
   99.6235   -8.0694   37.5444 C   0  0  0  0  0  0  0  0  0  0  0  0
   98.5526   -8.7721   38.1961 O   0  0  0  0  0  0  0  0  0  0  0  0
   98.7846   -5.5732   38.0803 N   0  0  0  0  0  0  0  0  0  0  0  0
   98.6351   -4.1749   38.5415 C   0  0  2  0  0  0  0  0  0  0  0  0
   99.8651   -3.2879   38.2767 C   0  0  0  0  0  0  0  0  0  0  0  0
  100.9327   -3.7653   37.9006 O   0  0  0  0  0  0  0  0  0  0  0  0
   98.3775   -4.1673   40.0743 C   0  0  2  0  0  0  0  0  0  0  0  0
   97.0528   -4.6736   40.3343 O   0  0  0  0  0  0  0  0  0  0  0  0
   98.5115   -2.7686   40.6619 C   0  0  0  0  0  0  0  0  0  0  0  0
   99.6272   -1.9301   38.2612 N   0  0  0  0  0  0  0  0  0  0  0  0
  100.0018   -1.0896   39.3913 C   0  0  0  0  0  0  0  0  0  0  0  0
  101.2958   -0.3115   39.1453 C   0  0  0  0  0  0  0  0  0  0  0  0
  102.1951   -0.7451   38.4291 O   0  0  0  0  0  0  0  0  0  0  0  0
  101.4022    0.8688   39.8399 N   0  0  0  0  0  0  0  0  0  0  0  0
  100.3991    1.2334   40.8352 C   0  0  0  0  0  0  0  0  0  0  0  0
   99.7605    2.5611   40.4258 C   0  0  0  0  0  0  0  0  0  0  0  0
   98.5881    2.6527   40.0615 O   0  0  0  0  0  0  0  0  0  0  0  0
  100.5868    3.6703   40.4510 N   0  0  0  0  0  0  0  0  0  0  0  0
  100.0809    4.9914   40.0530 C   0  0  1  0  0  0  0  0  0  0  0  0
   99.7743    5.8676   41.2766 C   0  0  0  0  0  0  0  0  0  0  0  0
   98.7250    6.9606   40.9868 C   0  0  0  0  0  0  0  0  0  0  0  0
   99.2446    8.0855   40.0989 C   0  0  0  0  0  0  0  0  0  0  0  0
   98.1452    9.0003   39.5810 C   0  0  0  0  0  0  0  0  0  0  0  0
   97.5745    9.7377   40.7002 N   0  0  0  0  0  0  0  0  0  0  0  0
   96.4464    9.2992   41.3393 C   0  0  0  0  0  0  0  0  0  0  0  0
   96.3817    8.2671   41.9952 O   0  0  0  0  0  0  0  0  0  0  0  0
   95.2840   10.2018   41.1488 C   0  0  0  0  0  0  0  0  0  0  0  0
   94.0987    9.8853   41.6916 C   0  0  0  0  0  0  0  0  0  0  0  0
   92.8885   10.7577   41.6584 C   0  0  0  0  0  0  0  0  0  0  0  0
  101.0754    5.6735   39.0591 C   0  0  0  0  0  0  0  0  0  0  0  0
  100.7696    6.5686   38.2698 O   0  0  0  0  0  0  0  0  0  0  0  0
  102.3136    5.0676   39.0372 N   0  0  0  0  0  0  0  0  0  0  0  0
  103.4571    5.6474   38.3654 C   0  0  2  0  0  0  0  0  0  0  0  0
  103.5420    5.2569   36.8718 C   0  0  0  0  0  0  0  0  0  0  0  0
  104.5157    5.6384   36.2105 O   0  0  0  0  0  0  0  0  0  0  0  0
  104.7317    5.3570   39.1200 C   0  0  0  0  0  0  0  0  0  0  0  0
  102.5573    4.4929   36.2832 N   0  0  0  0  0  0  0  0  0  0  0  0
  102.9243    3.2992   35.5137 C   0  0  2  0  0  0  0  0  0  0  0  0
  103.4031    3.6386   34.0884 C   0  0  0  0  0  0  0  0  0  0  0  0
  102.9902    4.5097   33.3376 O   0  0  0  0  0  0  0  0  0  0  0  0
  101.6428    2.4590   35.5039 C   0  0  0  0  0  0  0  0  0  0  0  0
  100.5436    3.5124   35.5458 C   0  0  0  0  0  0  0  0  0  0  0  0
  101.1185    4.5254   36.5233 C   0  0  0  0  0  0  0  0  0  0  0  0
  104.4571    2.8825   33.7150 O   0  0  0  0  0  0  0  0  0  0  0  0
   87.2592   -5.5820   41.5364 H   0  0  0  0  0  0  0  0  0  0  0  0
  109.1073   -9.3771   36.6077 H   0  0  0  0  0  0  0  0  0  0  0  0
  1  2  1  0
  2  3  1  0
  2  5  1  6
  3  4  2  0
  3  6  1  0
  6  7  1  0
  7  8  1  0
  7 10  1  1
  8  9  2  0
  8 17  1  0
 10 11  1  0
 11 12  1  0
 12 13  1  0
 13 14  1  0
 14 15  2  0
 14 16  1  0
 18 17  1  1
 18 19  1  0
 18 21  1  0
 19 20  2  0
 19 24  1  0
 21 22  1  0
 21 23  1  1
 24 25  1  0
 25 26  1  0
 25 28  1  6
 26 27  2  0
 26 33  1  0
 28 29  1  0
 29 30  1  0
 30 31  1  0
 31 32  1  0
 33 34  1  0
 34 35  1  0
 34 37  1  1
 35 36  2  0
 35 42  1  0
 37 38  1  0
 38 39  1  0
 39 40  2  0
 39 41  1  0
 43 42  1  6
 43 44  1  0
 43 46  1  0
 44 45  2  0
 44 49  1  0
 46 47  1  0
 46 48  1  6
 49 50  1  0
 50 51  1  0
 50 53  1  6
 51 52  2  0
 51 54  1  0
 54 55  1  0
 55 56  1  0
 55 58  1  6
 56 57  2  0
 56 65  1  0
 58 59  1  0
 59 60  1  0
 60 61  1  0
 61 62  1  0
 62 63  2  0
 62 64  1  0
 65 66  1  0
 66 67  1  0
 66 69  1  6
 67 68  2  0
 67 74  1  0
 69 70  1  0
 70 71  1  0
 71 72  1  0
 72 73  1  0
 74 75  1  0
 75 76  1  0
 75 78  1  1
 76 77  2  0
 76 80  1  0
 78 79  1  0
 81 80  1  1
 81 82  1  0
 81 84  1  0
 82 83  2  0
 82 87  1  0
 84 85  1  0
 84 86  1  6
 87 88  1  0
 88 89  1  0
 89 90  2  0
 89 91  1  0
 91 92  1  0
 92 93  1  0
 93 94  2  0
 93 95  1  0
 95 96  1  0
 96 97  1  1
 96107  1  0
 97 98  1  0
 98 99  1  0
 99100  1  0
100101  1  0
101102  1  0
102103  2  0
102104  1  0
104105  2  0
105106  1  0
107108  2  0
107109  1  0
109110  1  0
110111  1  0
110113  1  1
111112  2  0
111114  1  0
114115  1  0
114120  1  0
115116  1  6
115118  1  0
116117  2  0
116121  1  0
118119  1  0
119120  1  0
 15122  1  0
 63123  1  0
M  CHG  3   1   1  32   1  73   1
M  END
$$$$
