
     RDKit          3D

123123  0  0  0  0  0  0  0  0999 V2000
   99.8077  -14.0140   40.6177 N   0  0  0  0  0  4  0  0  0  0  0  0
   99.9930  -12.8367   41.5356 C   0  0  2  0  0  0  0  0  0  0  0  0
   99.1450  -11.6583   41.0316 C   0  0  0  0  0  0  0  0  0  0  0  0
   99.1354  -11.3752   39.8332 O   0  0  0  0  0  0  0  0  0  0  0  0
  101.4720  -12.4800   41.5458 C   0  0  0  0  0  0  0  0  0  0  0  0
   98.4482  -10.9753   41.9954 N   0  0  0  0  0  0  0  0  0  0  0  0
   97.7006   -9.7432   41.7379 C   0  0  2  0  0  0  0  0  0  0  0  0
   98.4368   -8.8462   40.7053 C   0  0  0  0  0  0  0  0  0  0  0  0
   98.6484   -9.2437   39.5585 O   0  0  0  0  0  0  0  0  0  0  0  0
   97.2147   -9.0409   43.0181 C   0  0  0  0  0  0  0  0  0  0  0  0
   97.2767   -9.9299   44.2735 C   0  0  0  0  0  0  0  0  0  0  0  0
   96.7672   -9.2199   45.5273 C   0  0  0  0  0  0  0  0  0  0  0  0
   97.8019   -9.1744   46.5436 N   0  0  0  0  0  0  0  0  0  0  0  0
   98.0432   -8.0267   47.2162 C   0  0  0  0  0  0  0  0  0  0  0  0
   97.1804   -7.4393   47.9721 N   0  0  0  0  0  0  0  0  0  0  0  0
   99.2979   -7.5634   47.0817 N   0  0  0  0  0  0  0  0  0  0  0  0
   98.6361   -7.5447   41.1118 N   0  0  0  0  0  0  0  0  0  0  0  0
   99.3136   -6.4781   40.3351 C   0  0  2  0  0  0  0  0  0  0  0  0
   98.6067   -6.2519   38.9814 C   0  0  0  0  0  0  0  0  0  0  0  0
   97.5354   -6.7925   38.7174 O   0  0  0  0  0  0  0  0  0  0  0  0
  100.8473   -6.5448   40.1867 C   0  0  2  0  0  0  0  0  0  0  0  0
  101.5312   -6.7446   41.4257 O   0  0  0  0  0  0  0  0  0  0  0  0
  101.4086   -5.2974   39.5109 C   0  0  0  0  0  0  0  0  0  0  0  0
   99.2614   -5.3909   38.1317 N   0  0  0  0  0  0  0  0  0  0  0  0
   98.6656   -4.7054   36.9959 C   0  0  2  0  0  0  0  0  0  0  0  0
   98.9574   -3.1874   36.9970 C   0  0  0  0  0  0  0  0  0  0  0  0
   98.1047   -2.3111   37.0369 O   0  0  0  0  0  0  0  0  0  0  0  0
   97.1818   -5.0096   36.7134 C   0  0  0  0  0  0  0  0  0  0  0  0
   96.2676   -3.8724   37.1900 C   0  0  0  0  0  0  0  0  0  0  0  0
   94.9234   -3.7644   36.4568 C   0  0  0  0  0  0  0  0  0  0  0  0
   93.9689   -2.7308   37.0377 C   0  0  0  0  0  0  0  0  0  0  0  0
   92.6723   -2.8071   36.3334 N   0  0  0  0  0  4  0  0  0  0  0  0
  100.3122   -2.8976   37.0191 N   0  0  0  0  0  0  0  0  0  0  0  0
  100.8351   -1.5286   37.0928 C   0  0  2  0  0  0  0  0  0  0  0  0
  102.3871   -1.4576   37.0451 C   0  0  0  0  0  0  0  0  0  0  0  0
  103.0026   -0.4657   36.6496 O   0  0  0  0  0  0  0  0  0  0  0  0
  100.1757   -0.6972   38.2031 C   0  0  0  0  0  0  0  0  0  0  0  0
  100.7668    0.6969   38.4535 C   0  0  0  0  0  0  0  0  0  0  0  0
  101.4802    0.8298   39.7832 C   0  0  0  0  0  0  0  0  0  0  0  0
  102.3981    1.6159   40.0023 O   0  0  0  0  0  0  0  0  0  0  0  0
  101.0432   -0.0184   40.7630 N   0  0  0  0  0  0  0  0  0  0  0  0
  103.0378   -2.6560   37.2501 N   0  0  0  0  0  0  0  0  0  0  0  0
  104.3934   -2.8559   36.6958 C   0  0  2  0  0  0  0  0  0  0  0  0
  104.3791   -3.4209   35.2584 C   0  0  0  0  0  0  0  0  0  0  0  0
  103.6631   -2.9548   34.3810 O   0  0  0  0  0  0  0  0  0  0  0  0
  105.1984   -3.8262   37.5987 C   0  0  2  0  0  0  0  0  0  0  0  0
  104.3262   -4.8868   38.0544 O   0  0  0  0  0  0  0  0  0  0  0  0
  105.8150   -3.0899   38.7804 C   0  0  0  0  0  0  0  0  0  0  0  0
  105.3136   -4.4101   35.0361 N   0  0  0  0  0  0  0  0  0  0  0  0
  105.3021   -5.3074   33.8853 C   0  0  2  0  0  0  0  0  0  0  0  0
  105.1565   -6.7085   34.5123 C   0  0  0  0  0  0  0  0  0  0  0  0
  106.1243   -7.4044   34.8373 O   0  0  0  0  0  0  0  0  0  0  0  0
  106.5166   -5.2172   32.9650 C   0  0  0  0  0  0  0  0  0  0  0  0
  103.8770   -7.2306   34.4838 N   0  0  0  0  0  0  0  0  0  0  0  0
  103.5553   -8.6006   34.8773 C   0  0  2  0  0  0  0  0  0  0  0  0
  102.0491   -8.9162   34.7286 C   0  0  0  0  0  0  0  0  0  0  0  0
  101.1758   -8.0550   34.7961 O   0  0  0  0  0  0  0  0  0  0  0  0
  104.0936   -8.9532   36.2716 C   0  0  0  0  0  0  0  0  0  0  0  0
  105.5972   -8.7677   36.5059 C   0  0  0  0  0  0  0  0  0  0  0  0
  106.1244   -9.2370   37.8626 C   0  0  0  0  0  0  0  0  0  0  0  0
  105.3640  -10.4065   38.2798 N   0  0  0  0  0  0  0  0  0  0  0  0
  105.5971  -11.0956   39.4206 C   0  0  0  0  0  0  0  0  0  0  0  0
  106.1436  -12.2508   39.5516 N   0  0  0  0  0  0  0  0  0  0  0  0
  105.2064  -10.3911   40.4945 N   0  0  0  0  0  0  0  0  0  0  0  0
  101.7457  -10.2545   34.6191 N   0  0  0  0  0  0  0  0  0  0  0  0
  101.4016  -10.9295   33.3623 C   0  0  2  0  0  0  0  0  0  0  0  0
  100.0188  -10.5868   32.7548 C   0  0  0  0  0  0  0  0  0  0  0  0
   99.9390   -9.9031   31.7330 O   0  0  0  0  0  0  0  0  0  0  0  0
  101.6554  -12.4474   33.4285 C   0  0  0  0  0  0  0  0  0  0  0  0
  101.0391  -13.1724   32.2193 C   0  0  0  0  0  0  0  0  0  0  0  0
  101.3443  -14.6727   32.2171 C   0  0  0  0  0  0  0  0  0  0  0  0
  100.1470  -15.5639   32.5518 C   0  0  0  0  0  0  0  0  0  0  0  0
  100.3798  -16.3657   33.7658 N   0  0  0  0  0  4  0  0  0  0  0  0
   98.9261  -11.1277   33.3814 N   0  0  0  0  0  0  0  0  0  0  0  0
   97.6111  -10.4777   33.5378 C   0  0  2  0  0  0  0  0  0  0  0  0
   97.2446   -9.7007   32.2543 C   0  0  0  0  0  0  0  0  0  0  0  0
   96.5230  -10.1808   31.3834 O   0  0  0  0  0  0  0  0  0  0  0  0
   97.4394   -9.5984   34.7839 C   0  0  0  0  0  0  0  0  0  0  0  0
   98.5392   -9.7667   35.6935 O   0  0  0  0  0  0  0  0  0  0  0  0
   97.7999   -8.4337   32.1705 N   0  0  0  0  0  0  0  0  0  0  0  0
   97.0644   -7.3885   31.4241 C   0  0  2  0  0  0  0  0  0  0  0  0
   97.8318   -6.0626   31.2730 C   0  0  0  0  0  0  0  0  0  0  0  0
   97.4924   -5.2134   30.4527 O   0  0  0  0  0  0  0  0  0  0  0  0
   95.7335   -7.0742   32.1627 C   0  0  2  0  0  0  0  0  0  0  0  0
   95.4991   -8.0828   33.1660 O   0  0  0  0  0  0  0  0  0  0  0  0
   94.5525   -7.0284   31.2022 C   0  0  0  0  0  0  0  0  0  0  0  0
   98.7588   -5.7961   32.2580 N   0  0  0  0  0  0  0  0  0  0  0  0
   98.6037   -4.6498   33.1443 C   0  0  0  0  0  0  0  0  0  0  0  0
   98.5397   -5.0484   34.6199 C   0  0  0  0  0  0  0  0  0  0  0  0
   99.4993   -5.5421   35.2075 O   0  0  0  0  0  0  0  0  0  0  0  0
   97.3124   -4.8781   35.2126 N   0  0  0  0  0  0  0  0  0  0  0  0
   96.1521   -4.4978   34.4132 C   0  0  0  0  0  0  0  0  0  0  0  0
   96.0607   -2.9719   34.3745 C   0  0  0  0  0  0  0  0  0  0  0  0
   97.0447   -2.2418   34.4948 O   0  0  0  0  0  0  0  0  0  0  0  0
   94.7924   -2.4390   34.2301 N   0  0  0  0  0  0  0  0  0  0  0  0
   94.3074   -1.3982   35.1473 C   0  0  1  0  0  0  0  0  0  0  0  0
   92.8227   -1.5961   35.4871 C   0  0  0  0  0  0  0  0  0  0  0  0
   91.8799   -0.8340   34.5331 C   0  0  0  0  0  0  0  0  0  0  0  0
   90.4015   -1.0428   34.8402 C   0  0  0  0  0  0  0  0  0  0  0  0
   89.6893    0.2320   35.2662 C   0  0  0  0  0  0  0  0  0  0  0  0
   89.9902    1.2871   34.3079 N   0  0  0  0  0  0  0  0  0  0  0  0
   89.1139    1.6099   33.3074 C   0  0  0  0  0  0  0  0  0  0  0  0
   88.8560    0.8847   32.3550 O   0  0  0  0  0  0  0  0  0  0  0  0
   88.5039    2.9516   33.4813 C   0  0  0  0  0  0  0  0  0  0  0  0
   87.9058    3.5515   32.4410 C   0  0  0  0  0  0  0  0  0  0  0  0
   87.9988    5.0082   32.1314 C   0  0  0  0  0  0  0  0  0  0  0  0
   95.2123   -1.3356   36.4200 C   0  0  0  0  0  0  0  0  0  0  0  0
   95.8570   -0.3460   36.7701 O   0  0  0  0  0  0  0  0  0  0  0  0
   95.3473   -2.5576   37.0438 N   0  0  0  0  0  0  0  0  0  0  0  0
   96.0100   -2.7155   38.3210 C   0  0  2  0  0  0  0  0  0  0  0  0
   95.5174   -3.9516   39.1082 C   0  0  0  0  0  0  0  0  0  0  0  0
   96.0039   -5.0584   38.8452 O   0  0  0  0  0  0  0  0  0  0  0  0
   95.9398   -1.4414   39.1274 C   0  0  0  0  0  0  0  0  0  0  0  0
   94.5585   -3.8287   40.0906 N   0  0  0  0  0  0  0  0  0  0  0  0
   93.9325   -5.0308   40.6516 C   0  0  2  0  0  0  0  0  0  0  0  0
   92.8200   -5.5954   39.7463 C   0  0  0  0  0  0  0  0  0  0  0  0
   92.8156   -6.6406   39.1133 O   0  0  0  0  0  0  0  0  0  0  0  0
   93.3890   -4.5650   42.0065 C   0  0  0  0  0  0  0  0  0  0  0  0
   93.0555   -3.1003   41.7552 C   0  0  0  0  0  0  0  0  0  0  0  0
   94.2271   -2.6564   40.8936 C   0  0  0  0  0  0  0  0  0  0  0  0
   91.7167   -4.8178   39.7551 O   0  0  0  0  0  0  0  0  0  0  0  0
   96.7912   -8.1554   48.6079 H   0  0  0  0  0  0  0  0  0  0  0  0
  106.6698  -12.4444   38.6954 H   0  0  0  0  0  0  0  0  0  0  0  0
  1  2  1  0
  2  3  1  0
  2  5  1  6
  3  4  2  0
  3  6  1  0
  6  7  1  0
  7  8  1  0
  7 10  1  1
  8  9  2  0
  8 17  1  0
 10 11  1  0
 11 12  1  0
 12 13  1  0
 13 14  1  0
 14 15  2  0
 14 16  1  0
 18 17  1  6
 18 19  1  0
 18 21  1  0
 19 20  2  0
 19 24  1  0
 21 22  1  0
 21 23  1  1
 24 25  1  0
 25 26  1  0
 25 28  1  1
 26 27  2  0
 26 33  1  0
 28 29  1  0
 29 30  1  0
 30 31  1  0
 31 32  1  0
 33 34  1  0
 34 35  1  0
 34 37  1  1
 35 36  2  0
 35 42  1  0
 37 38  1  0
 38 39  1  0
 39 40  2  0
 39 41  1  0
 43 42  1  1
 43 44  1  0
 43 46  1  0
 44 45  2  0
 44 49  1  0
 46 47  1  0
 46 48  1  1
 49 50  1  0
 50 51  1  0
 50 53  1  1
 51 52  2  0
 51 54  1  0
 54 55  1  0
 55 56  1  0
 55 58  1  1
 56 57  2  0
 56 65  1  0
 58 59  1  0
 59 60  1  0
 60 61  1  0
 61 62  1  0
 62 63  2  0
 62 64  1  0
 65 66  1  0
 66 67  1  0
 66 69  1  1
 67 68  2  0
 67 74  1  0
 69 70  1  0
 70 71  1  0
 71 72  1  0
 72 73  1  0
 74 75  1  0
 75 76  1  0
 75 78  1  1
 76 77  2  0
 76 80  1  0
 78 79  1  0
 81 80  1  1
 81 82  1  0
 81 84  1  0
 82 83  2  0
 82 87  1  0
 84 85  1  0
 84 86  1  6
 87 88  1  0
 88 89  1  0
 89 90  2  0
 89 91  1  0
 91 92  1  0
 92 93  1  0
 93 94  2  0
 93 95  1  0
 95 96  1  0
 96 97  1  1
 96107  1  0
 97 98  1  0
 98 99  1  0
 99100  1  0
100101  1  0
101102  1  0
102103  2  0
102104  1  0
104105  2  0
105106  1  0
107108  2  0
107109  1  0
109110  1  0
110111  1  0
110113  1  1
111112  2  0
111114  1  0
114115  1  0
114120  1  0
115116  1  6
115118  1  0
116117  2  0
116121  1  0
118119  1  0
119120  1  0
 15122  1  0
 63123  1  0
M  CHG  3   1   1  32   1  73   1
M  END
$$$$
