
     RDKit          3D

 78 83  0  0  0  0  0  0  0  0999 V2000
  -55.0439  -31.7430   57.7239 C   0  0  0  0  0  0  0  0  0  0  0  0
  -55.2375  -31.5616   56.1910 C   0  0  1  0  0  0  0  0  0  0  0  0
  -53.9657  -31.8949   55.4062 C   0  0  0  0  0  0  0  0  0  0  0  0
  -53.8429  -33.3717   55.0862 C   0  0  1  0  0  0  0  0  0  0  0  0
  -55.1321  -33.8689   54.4037 C   0  0  2  0  0  0  0  0  0  0  0  0
  -56.3018  -33.6562   55.3996 C   0  0  2  0  0  0  0  0  0  0  0  0
  -57.6940  -34.0254   54.8132 C   0  0  1  0  0  0  0  0  0  0  0  0
  -58.8623  -33.4915   55.6866 C   0  0  1  0  0  0  0  0  0  0  0  0
  -60.2573  -33.8613   55.1378 C   0  0  0  0  0  0  0  0  0  0  0  0
  -55.9372  -36.1884   54.0210 C   0  0  0  0  0  0  0  0  0  0  0  0
  -56.5425  -36.5327   52.6860 C   0  0  0  0  0  0  0  0  0  0  0  0
  -54.9259  -35.2602   53.9636 N   0  0  0  0  0  0  0  0  0  0  0  0
  -56.2001  -31.7686   58.4193 O   0  0  0  0  0  0  0  0  0  0  0  0
  -53.9777  -31.8536   58.3237 O   0  0  0  0  0  0  0  0  0  0  0  0
  -52.7325  -33.5962   54.2043 O   0  0  0  0  0  0  0  0  0  0  0  0
  -56.3973  -32.2764   55.7933 O   0  0  0  0  0  0  0  0  0  0  0  0
  -57.7940  -33.5285   53.4755 O   0  0  0  0  0  0  0  0  0  0  0  0
  -58.7250  -34.0166   57.0181 O   0  0  0  0  0  0  0  0  0  0  0  0
  -61.3034  -33.5459   56.0516 O   0  0  0  0  0  0  0  0  0  0  0  0
  -56.3119  -36.7207   55.0672 O   0  0  0  0  0  0  0  0  0  0  0  0
  -57.2019  -28.4303   53.0943 C   0  0  1  0  0  0  0  0  0  0  0  0
  -56.0613  -28.6813   54.1160 C   0  0  1  0  0  0  0  0  0  0  0  0
  -56.4759  -29.8455   55.0234 C   0  0  2  0  0  0  0  0  0  0  0  0
  -57.7928  -29.4976   55.7339 C   0  0  2  0  0  0  0  0  0  0  0  0
  -58.8406  -29.3012   54.6254 C   0  0  1  0  0  0  0  0  0  0  0  0
  -60.2510  -29.0401   55.1594 C   0  0  0  0  0  0  0  0  0  0  0  0
  -54.8416  -29.0407   53.4395 O   0  0  0  0  0  0  0  0  0  0  0  0
  -55.4536  -30.1343   56.0045 O   0  0  0  0  0  0  0  0  0  0  0  0
  -57.5412  -28.2958   56.4892 O   0  0  0  0  0  0  0  0  0  0  0  0
  -58.4667  -28.2281   53.7419 O   0  0  0  0  0  0  0  0  0  0  0  0
  -60.5516  -27.6523   55.2452 O   0  0  0  0  0  0  0  0  0  0  0  0
  -57.4536  -28.4879   57.9036 C   0  0  1  0  0  0  0  0  0  0  0  0
  -56.4101  -27.4798   58.4799 C   0  0  1  0  0  0  0  0  0  0  0  0
  -56.8092  -27.0403   59.9200 C   0  0  2  0  0  0  0  0  0  0  0  0
  -57.5343  -28.1947   60.6319 C   0  0  2  0  0  0  0  0  0  0  0  0
  -58.8053  -28.6212   59.8574 C   0  0  1  0  0  0  0  0  0  0  0  0
  -60.1024  -28.0391   60.4310 C   0  0  0  0  0  0  0  0  0  0  0  0
  -53.9614  -27.3077   58.0230 C   0  0  0  0  0  0  0  0  0  0  0  0
  -52.6297  -27.9529   58.3072 C   0  0  0  0  0  0  0  0  0  0  0  0
  -55.0423  -28.0436   58.4464 N   0  0  0  0  0  0  0  0  0  0  0  0
  -57.6814  -25.8930   59.8543 O   0  0  0  0  0  0  0  0  0  0  0  0
  -57.7515  -27.8756   62.0045 O   0  0  0  0  0  0  0  0  0  0  0  0
  -58.7347  -28.2742   58.4712 O   0  0  0  0  0  0  0  0  0  0  0  0
  -60.6360  -28.8967   61.4455 O   0  0  0  0  0  0  0  0  0  0  0  0
  -54.0484  -26.2109   57.4815 O   0  0  0  0  0  0  0  0  0  0  0  0
  -57.3074  -24.8604   60.7751 C   0  0  1  0  0  0  0  0  0  0  0  0
  -58.4820  -23.8557   60.8837 C   0  0  1  0  0  0  0  0  0  0  0  0
  -58.2452  -22.8935   62.0659 C   0  0  2  0  0  0  0  0  0  0  0  0
  -57.8208  -23.6334   63.3413 C   0  0  2  0  0  0  0  0  0  0  0  0
  -56.6143  -24.5251   63.0232 C   0  0  1  0  0  0  0  0  0  0  0  0
  -56.1115  -25.3080   64.2374 C   0  0  0  0  0  0  0  0  0  0  0  0
  -58.4977  -23.0859   59.6588 O   0  0  0  0  0  0  0  0  0  0  0  0
  -59.4381  -22.1442   62.3564 O   0  0  0  0  0  0  0  0  0  0  0  0
  -58.9741  -24.3685   63.7954 O   0  0  0  0  0  0  0  0  0  0  0  0
  -56.9830  -25.4844   62.0223 O   0  0  0  0  0  0  0  0  0  0  0  0
  -55.4100  -24.4279   65.1143 O   0  0  0  0  0  0  0  0  0  0  0  0
  -57.1950  -22.7976   59.1396 C   0  0  1  0  0  0  0  0  0  0  0  0
  -56.2737  -22.6727   60.3745 C   0  0  2  0  0  0  0  0  0  0  0  0
  -54.8007  -22.5259   59.9752 C   0  0  1  0  0  0  0  0  0  0  0  0
  -54.5099  -23.1514   58.5994 C   0  0  1  0  0  0  0  0  0  0  0  0
  -55.4818  -24.3127   58.3377 C   0  0  2  0  0  0  0  0  0  0  0  0
  -55.1733  -25.0549   57.0390 C   0  0  0  0  0  0  0  0  0  0  0  0
  -56.4099  -23.8483   61.2052 O   0  0  0  0  0  0  0  0  0  0  0  0
  -54.4015  -21.1432   59.9592 O   0  0  0  0  0  0  0  0  0  0  0  0
  -54.6579  -22.1027   57.6147 O   0  0  0  0  0  0  0  0  0  0  0  0
  -56.8338  -23.8502   58.2393 O   0  0  0  0  0  0  0  0  0  0  0  0
  -58.1210  -25.5162   49.1893 C   0  0  2  0  0  0  0  0  0  0  0  0
  -57.9304  -25.7704   50.6828 C   0  0  2  0  0  0  0  0  0  0  0  0
  -57.4394  -27.1985   51.0049 C   0  0  1  0  0  0  0  0  0  0  0  0
  -56.3050  -27.5993   50.0362 C   0  0  1  0  0  0  0  0  0  0  0  0
  -55.9402  -29.0847   50.1688 C   0  0  0  0  0  0  0  0  0  0  0  0
  -56.9146  -26.0196   48.3938 C   0  0  2  0  0  0  0  0  0  0  0  0
  -57.2090  -25.8860   47.0077 O   0  0  0  0  0  0  0  0  0  0  0  0
  -58.2856  -24.1048   48.9575 O   0  0  0  0  0  0  0  0  0  0  0  0
  -59.1855  -25.5162   51.3352 O   0  0  0  0  0  0  0  0  0  0  0  0
  -56.8777  -27.2624   52.3319 O   0  0  0  0  0  0  0  0  0  0  0  0
  -56.6719  -27.3881   48.6614 O   0  0  0  0  0  0  0  0  0  0  0  0
  -54.6273  -29.3228   49.6516 O   0  0  0  0  0  0  0  0  0  0  0  0
  2  1  1  0
  1 13  1  0
  1 14  2  0
  2  3  1  0
  2 16  1  0
  2 28  1  1
  3  4  1  0
  4  5  1  0
  4 15  1  6
  6  5  1  0
  5 12  1  1
  6  7  1  0
  6 16  1  6
  7  8  1  0
  7 17  1  6
  8  9  1  0
  8 18  1  1
  9 19  1  0
 10 11  1  0
 12 10  1  0
 10 20  2  0
 21 22  1  0
 21 30  1  0
 21 76  1  1
 22 23  1  0
 22 27  1  6
 23 24  1  0
 23 28  1  1
 25 24  1  0
 24 29  1  6
 25 26  1  1
 30 25  1  0
 26 31  1  0
 32 29  1  6
 32 33  1  0
 32 43  1  0
 33 34  1  0
 33 40  1  1
 34 35  1  0
 34 41  1  6
 36 35  1  0
 35 42  1  1
 36 37  1  1
 43 36  1  0
 37 44  1  0
 38 39  1  0
 40 38  1  0
 38 45  2  0
 46 41  1  6
 46 47  1  0
 46 55  1  0
 47 48  1  0
 47 52  1  6
 48 49  1  0
 48 53  1  1
 50 49  1  0
 49 54  1  6
 50 51  1  1
 55 50  1  0
 51 56  1  0
 57 52  1  1
 57 58  1  0
 57 66  1  0
 58 59  1  0
 58 63  1  1
 59 60  1  0
 59 64  1  6
 61 60  1  0
 60 65  1  6
 61 62  1  6
 66 61  1  0
 68 67  1  0
 67 72  1  0
 67 74  1  1
 69 68  1  0
 68 75  1  1
 69 70  1  0
 69 76  1  1
 70 71  1  6
 70 77  1  0
 71 78  1  0
 72 73  1  6
 72 77  1  0
M  END
$$$$
