
     RDKit          3D

 78 83  0  0  0  0  0  0  0  0999 V2000
  -57.3087  -25.8338   60.6463 C   0  0  0  0  0  0  0  0  0  0  0  0
  -57.0569  -25.4293   59.1653 C   0  0  1  0  0  0  0  0  0  0  0  0
  -57.9316  -24.2491   58.7338 C   0  0  0  0  0  0  0  0  0  0  0  0
  -57.3145  -22.9061   59.0713 C   0  0  1  0  0  0  0  0  0  0  0  0
  -55.8767  -22.8369   58.5205 C   0  0  2  0  0  0  0  0  0  0  0  0
  -55.0582  -23.9630   59.2040 C   0  0  2  0  0  0  0  0  0  0  0  0
  -53.6004  -24.0818   58.6757 C   0  0  1  0  0  0  0  0  0  0  0  0
  -53.0820  -25.5459   58.6991 C   0  0  1  0  0  0  0  0  0  0  0  0
  -51.7913  -25.7266   59.5269 C   0  0  0  0  0  0  0  0  0  0  0  0
  -54.2800  -21.2268   59.5367 C   0  0  0  0  0  0  0  0  0  0  0  0
  -54.6322  -20.9726   60.9785 C   0  0  0  0  0  0  0  0  0  0  0  0
  -55.3596  -21.4718   58.7231 N   0  0  0  0  0  0  0  0  0  0  0  0
  -56.6830  -26.9716   61.0138 O   0  0  0  0  0  0  0  0  0  0  0  0
  -58.0005  -25.2352   61.4660 O   0  0  0  0  0  0  0  0  0  0  0  0
  -58.0878  -21.8458   58.4891 O   0  0  0  0  0  0  0  0  0  0  0  0
  -55.6619  -25.2481   58.9763 O   0  0  0  0  0  0  0  0  0  0  0  0
  -53.5276  -23.5402   57.3538 O   0  0  0  0  0  0  0  0  0  0  0  0
  -54.1102  -26.3946   59.2375 O   0  0  0  0  0  0  0  0  0  0  0  0
  -51.4077  -27.0931   59.6468 O   0  0  0  0  0  0  0  0  0  0  0  0
  -53.1139  -21.2348   59.1387 O   0  0  0  0  0  0  0  0  0  0  0  0
  -56.4513  -26.7100   54.7367 C   0  0  1  0  0  0  0  0  0  0  0  0
  -57.3976  -26.4109   55.9295 C   0  0  1  0  0  0  0  0  0  0  0  0
  -56.6844  -26.8196   57.2237 C   0  0  2  0  0  0  0  0  0  0  0  0
  -56.3231  -28.3114   57.1605 C   0  0  2  0  0  0  0  0  0  0  0  0
  -55.3687  -28.4724   55.9654 C   0  0  1  0  0  0  0  0  0  0  0  0
  -54.8241  -29.8942   55.8077 C   0  0  0  0  0  0  0  0  0  0  0  0
  -57.7007  -25.0045   55.9989 O   0  0  0  0  0  0  0  0  0  0  0  0
  -57.5140  -26.5670   58.3808 O   0  0  0  0  0  0  0  0  0  0  0  0
  -57.5650  -29.0228   56.9882 O   0  0  0  0  0  0  0  0  0  0  0  0
  -56.0035  -28.0736   54.7366 O   0  0  0  0  0  0  0  0  0  0  0  0
  -55.6554  -30.8668   56.4293 O   0  0  0  0  0  0  0  0  0  0  0  0
  -58.0568  -29.6588   58.1709 C   0  0  1  0  0  0  0  0  0  0  0  0
  -59.2904  -30.5362   57.7890 C   0  0  1  0  0  0  0  0  0  0  0  0
  -59.3690  -31.7979   58.6990 C   0  0  2  0  0  0  0  0  0  0  0  0
  -58.8125  -31.4664   60.0939 C   0  0  2  0  0  0  0  0  0  0  0  0
  -57.3427  -30.9868   60.0118 C   0  0  1  0  0  0  0  0  0  0  0  0
  -56.3178  -32.0765   60.3472 C   0  0  0  0  0  0  0  0  0  0  0  0
  -61.4581  -29.7705   56.8150 C   0  0  0  0  0  0  0  0  0  0  0  0
  -62.6745  -28.9156   57.0600 C   0  0  0  0  0  0  0  0  0  0  0  0
  -60.5446  -29.7527   57.8417 N   0  0  0  0  0  0  0  0  0  0  0  0
  -58.5966  -32.8676   58.1153 O   0  0  0  0  0  0  0  0  0  0  0  0
  -59.0361  -32.5522   60.9905 O   0  0  0  0  0  0  0  0  0  0  0  0
  -57.0205  -30.4516   58.7246 O   0  0  0  0  0  0  0  0  0  0  0  0
  -55.0076  -31.5149   60.4788 O   0  0  0  0  0  0  0  0  0  0  0  0
  -61.3270  -30.4340   55.7920 O   0  0  0  0  0  0  0  0  0  0  0  0
  -59.1171  -34.1640   58.4354 C   0  0  1  0  0  0  0  0  0  0  0  0
  -58.7997  -35.1205   57.2584 C   0  0  1  0  0  0  0  0  0  0  0  0
  -59.0819  -36.5791   57.6735 C   0  0  2  0  0  0  0  0  0  0  0  0
  -58.4871  -36.9179   59.0466 C   0  0  2  0  0  0  0  0  0  0  0  0
  -58.9712  -35.8829   60.0696 C   0  0  1  0  0  0  0  0  0  0  0  0
  -58.4316  -36.1356   61.4785 C   0  0  0  0  0  0  0  0  0  0  0  0
  -59.6900  -34.7695   56.1733 O   0  0  0  0  0  0  0  0  0  0  0  0
  -58.5362  -37.4954   56.7084 O   0  0  0  0  0  0  0  0  0  0  0  0
  -57.0554  -36.9373   58.8831 O   0  0  0  0  0  0  0  0  0  0  0  0
  -58.5267  -34.5780   59.6724 O   0  0  0  0  0  0  0  0  0  0  0  0
  -59.3042  -37.0282   62.1697 O   0  0  0  0  0  0  0  0  0  0  0  0
  -59.0401  -34.6653   54.9019 C   0  0  1  0  0  0  0  0  0  0  0  0
  -60.0413  -33.9291   53.9826 C   0  0  2  0  0  0  0  0  0  0  0  0
  -59.4238  -33.5923   52.6202 C   0  0  1  0  0  0  0  0  0  0  0  0
  -57.8920  -33.4649   52.6957 C   0  0  1  0  0  0  0  0  0  0  0  0
  -57.4752  -32.9979   54.0992 C   0  0  2  0  0  0  0  0  0  0  0  0
  -55.9743  -32.7375   54.2095 C   0  0  0  0  0  0  0  0  0  0  0  0
  -60.4665  -32.6984   54.6114 O   0  0  0  0  0  0  0  0  0  0  0  0
  -59.7673  -34.5831   51.6344 O   0  0  0  0  0  0  0  0  0  0  0  0
  -57.3403  -34.7647   52.3828 O   0  0  0  0  0  0  0  0  0  0  0  0
  -57.7999  -33.9767   55.0932 O   0  0  0  0  0  0  0  0  0  0  0  0
  -56.7952  -27.1541   49.7991 C   0  0  2  0  0  0  0  0  0  0  0  0
  -57.3616  -27.2804   51.2113 C   0  0  2  0  0  0  0  0  0  0  0  0
  -56.4331  -26.6994   52.2997 C   0  0  1  0  0  0  0  0  0  0  0  0
  -55.8769  -25.3317   51.8461 C   0  0  1  0  0  0  0  0  0  0  0  0
  -54.7780  -24.8217   52.7892 C   0  0  0  0  0  0  0  0  0  0  0  0
  -56.2547  -25.7435   49.5542 C   0  0  2  0  0  0  0  0  0  0  0  0
  -55.6163  -25.7267   48.2822 O   0  0  0  0  0  0  0  0  0  0  0  0
  -57.8286  -27.4386   48.8378 O   0  0  0  0  0  0  0  0  0  0  0  0
  -57.6114  -28.6735   51.4613 O   0  0  0  0  0  0  0  0  0  0  0  0
  -57.1616  -26.4536   53.5201 O   0  0  0  0  0  0  0  0  0  0  0  0
  -55.2928  -25.3972   50.5331 O   0  0  0  0  0  0  0  0  0  0  0  0
  -54.2938  -23.5497   52.3473 O   0  0  0  0  0  0  0  0  0  0  0  0
  2  1  1  0
  1 13  1  0
  1 14  2  0
  2  3  1  0
  2 16  1  0
  2 28  1  6
  3  4  1  0
  4  5  1  0
  4 15  1  6
  6  5  1  0
  5 12  1  1
  6  7  1  0
  6 16  1  6
  7  8  1  0
  7 17  1  6
  8  9  1  0
  8 18  1  1
  9 19  1  0
 10 11  1  0
 12 10  1  0
 10 20  2  0
 21 22  1  0
 21 30  1  0
 21 76  1  6
 22 23  1  0
 22 27  1  1
 23 24  1  0
 23 28  1  1
 25 24  1  0
 24 29  1  6
 25 26  1  6
 30 25  1  0
 26 31  1  0
 32 29  1  6
 32 33  1  0
 32 43  1  0
 33 34  1  0
 33 40  1  1
 34 35  1  0
 34 41  1  6
 36 35  1  0
 35 42  1  1
 36 37  1  6
 43 36  1  0
 37 44  1  0
 38 39  1  0
 40 38  1  0
 38 45  2  0
 46 41  1  6
 46 47  1  0
 46 55  1  0
 47 48  1  0
 47 52  1  6
 48 49  1  0
 48 53  1  6
 50 49  1  0
 49 54  1  6
 50 51  1  1
 55 50  1  0
 51 56  1  0
 57 52  1  1
 57 58  1  0
 57 66  1  0
 58 59  1  0
 58 63  1  1
 59 60  1  0
 59 64  1  6
 61 60  1  0
 60 65  1  1
 61 62  1  6
 66 61  1  0
 68 67  1  0
 67 72  1  0
 67 74  1  6
 69 68  1  0
 68 75  1  1
 69 70  1  0
 69 76  1  1
 70 71  1  1
 70 77  1  0
 71 78  1  0
 72 73  1  6
 72 77  1  0
M  END
$$$$
