
     RDKit          3D

 78 83  0  0  0  0  0  0  0  0999 V2000
  -51.6180    5.0286   47.4162 C   0  0  0  0  0  0  0  0  0  0  0  0
  -50.5498    4.3439   46.5159 C   0  0  1  0  0  0  0  0  0  0  0  0
  -50.5428    2.8222   46.6861 C   0  0  0  0  0  0  0  0  0  0  0  0
  -51.5533    2.1268   45.7952 C   0  0  1  0  0  0  0  0  0  0  0  0
  -51.3644    2.5810   44.3347 C   0  0  2  0  0  0  0  0  0  0  0  0
  -51.6059    4.1121   44.2849 C   0  0  2  0  0  0  0  0  0  0  0  0
  -51.3559    4.7368   42.8829 C   0  0  1  0  0  0  0  0  0  0  0  0
  -51.6328    6.2652   42.8603 C   0  0  1  0  0  0  0  0  0  0  0  0
  -51.4531    6.9006   41.4647 C   0  0  0  0  0  0  0  0  0  0  0  0
  -53.2786    2.3497   42.7672 C   0  0  0  0  0  0  0  0  0  0  0  0
  -54.6391    2.1535   43.3819 C   0  0  0  0  0  0  0  0  0  0  0  0
  -52.2486    1.7764   43.4728 N   0  0  0  0  0  0  0  0  0  0  0  0
  -51.6783    4.5264   48.6672 O   0  0  0  0  0  0  0  0  0  0  0  0
  -52.3769    5.9397   47.0957 O   0  0  0  0  0  0  0  0  0  0  0  0
  -51.3791    0.7034   45.8666 O   0  0  0  0  0  0  0  0  0  0  0  0
  -50.7199    4.8018   45.1833 O   0  0  0  0  0  0  0  0  0  0  0  0
  -50.0147    4.4593   42.4704 O   0  0  0  0  0  0  0  0  0  0  0  0
  -52.9757    6.5012   43.3166 O   0  0  0  0  0  0  0  0  0  0  0  0
  -51.8714    8.2617   41.4278 O   0  0  0  0  0  0  0  0  0  0  0  0
  -53.1151    2.9939   41.7295 O   0  0  0  0  0  0  0  0  0  0  0  0
  -46.8556    7.3682   45.6077 C   0  0  1  0  0  0  0  0  0  0  0  0
  -47.2762    6.0489   46.3079 C   0  0  1  0  0  0  0  0  0  0  0  0
  -48.8069    6.0134   46.3879 C   0  0  2  0  0  0  0  0  0  0  0  0
  -49.3080    7.2401   47.1650 C   0  0  2  0  0  0  0  0  0  0  0  0
  -48.8556    8.4717   46.3626 C   0  0  1  0  0  0  0  0  0  0  0  0
  -49.3559    9.7959   46.9450 C   0  0  0  0  0  0  0  0  0  0  0  0
  -46.8312    4.9066   45.5518 O   0  0  0  0  0  0  0  0  0  0  0  0
  -49.2696    4.8047   47.0328 O   0  0  0  0  0  0  0  0  0  0  0  0
  -48.7037    7.1674   48.4718 O   0  0  0  0  0  0  0  0  0  0  0  0
  -47.4214    8.5201   46.2503 O   0  0  0  0  0  0  0  0  0  0  0  0
  -49.4194   10.8293   45.9695 O   0  0  0  0  0  0  0  0  0  0  0  0
  -49.2875    8.0344   49.4477 C   0  0  1  0  0  0  0  0  0  0  0  0
  -50.0713    7.1656   50.4812 C   0  0  1  0  0  0  0  0  0  0  0  0
  -50.0235    7.8180   51.8948 C   0  0  2  0  0  0  0  0  0  0  0  0
  -49.9750    9.3490   51.7576 C   0  0  2  0  0  0  0  0  0  0  0  0
  -48.7369    9.8003   50.9447 C   0  0  1  0  0  0  0  0  0  0  0  0
  -47.5700   10.2834   51.8137 C   0  0  0  0  0  0  0  0  0  0  0  0
  -52.0602    5.6968   50.1330 C   0  0  0  0  0  0  0  0  0  0  0  0
  -53.5239    5.6923   49.7748 C   0  0  0  0  0  0  0  0  0  0  0  0
  -51.4645    6.9320   50.0406 N   0  0  0  0  0  0  0  0  0  0  0  0
  -48.8516    7.3617   52.6018 O   0  0  0  0  0  0  0  0  0  0  0  0
  -50.1074    9.9682   53.0350 O   0  0  0  0  0  0  0  0  0  0  0  0
  -48.2528    8.7678   50.0806 O   0  0  0  0  0  0  0  0  0  0  0  0
  -47.7671   11.6436   52.2140 O   0  0  0  0  0  0  0  0  0  0  0  0
  -51.4780    4.6802   50.4952 O   0  0  0  0  0  0  0  0  0  0  0  0
  -48.8408    7.7695   53.9757 C   0  0  1  0  0  0  0  0  0  0  0  0
  -47.8745    6.8398   54.7522 C   0  0  1  0  0  0  0  0  0  0  0  0
  -47.6105    7.4115   56.1604 C   0  0  2  0  0  0  0  0  0  0  0  0
  -47.2838    8.9102   56.1271 C   0  0  2  0  0  0  0  0  0  0  0  0
  -48.3911    9.6460   55.3625 C   0  0  1  0  0  0  0  0  0  0  0  0
  -48.1575   11.1551   55.2750 C   0  0  0  0  0  0  0  0  0  0  0  0
  -48.5351    5.5601   54.8906 O   0  0  0  0  0  0  0  0  0  0  0  0
  -46.5132    6.7257   56.7884 O   0  0  0  0  0  0  0  0  0  0  0  0
  -45.9841    9.0361   55.5174 O   0  0  0  0  0  0  0  0  0  0  0  0
  -48.4531    9.1471   54.0189 O   0  0  0  0  0  0  0  0  0  0  0  0
  -46.7779   11.4376   55.5051 O   0  0  0  0  0  0  0  0  0  0  0  0
  -49.9265    5.5876   54.5546 C   0  0  1  0  0  0  0  0  0  0  0  0
  -50.6212    6.3269   55.7210 C   0  0  2  0  0  0  0  0  0  0  0  0
  -52.1045    6.5842   55.4309 C   0  0  1  0  0  0  0  0  0  0  0  0
  -52.3946    6.6523   53.9211 C   0  0  1  0  0  0  0  0  0  0  0  0
  -51.1511    7.1572   53.1725 C   0  0  2  0  0  0  0  0  0  0  0  0
  -51.4065    7.3607   51.6805 C   0  0  0  0  0  0  0  0  0  0  0  0
  -49.9701    7.5976   55.9493 O   0  0  0  0  0  0  0  0  0  0  0  0
  -52.9343    5.5700   56.0260 O   0  0  0  0  0  0  0  0  0  0  0  0
  -52.7649    5.3200   53.4977 O   0  0  0  0  0  0  0  0  0  0  0  0
  -50.0630    6.2324   53.2840 O   0  0  0  0  0  0  0  0  0  0  0  0
  -42.5851    9.4634   44.0978 C   0  0  2  0  0  0  0  0  0  0  0  0
  -43.3286    8.6527   45.1567 C   0  0  2  0  0  0  0  0  0  0  0  0
  -44.8484    8.5562   44.9013 C   0  0  1  0  0  0  0  0  0  0  0  0
  -45.1164    8.2482   43.4116 C   0  0  1  0  0  0  0  0  0  0  0  0
  -46.6072    8.3659   43.0641 C   0  0  0  0  0  0  0  0  0  0  0  0
  -43.0161    9.0446   42.6905 C   0  0  2  0  0  0  0  0  0  0  0  0
  -42.4006    9.9247   41.7567 O   0  0  0  0  0  0  0  0  0  0  0  0
  -41.1674    9.2570   44.2399 O   0  0  0  0  0  0  0  0  0  0  0  0
  -43.0758    9.2618   46.4338 O   0  0  0  0  0  0  0  0  0  0  0  0
  -45.4277    7.4671   45.6487 O   0  0  0  0  0  0  0  0  0  0  0  0
  -44.4192    9.1564   42.5407 O   0  0  0  0  0  0  0  0  0  0  0  0
  -46.7979    8.2640   41.6495 O   0  0  0  0  0  0  0  0  0  0  0  0
  2  1  1  0
  1 13  1  0
  1 14  2  0
  2  3  1  0
  2 16  1  0
  2 28  1  1
  3  4  1  0
  4  5  1  0
  4 15  1  6
  6  5  1  0
  5 12  1  6
  6  7  1  0
  6 16  1  1
  7  8  1  0
  7 17  1  1
  8  9  1  0
  8 18  1  6
  9 19  1  0
 10 11  1  0
 12 10  1  0
 10 20  2  0
 21 22  1  0
 21 30  1  0
 21 76  1  1
 22 23  1  0
 22 27  1  6
 23 24  1  0
 23 28  1  1
 25 24  1  0
 24 29  1  1
 25 26  1  1
 30 25  1  0
 26 31  1  0
 32 29  1  6
 32 33  1  0
 32 43  1  0
 33 34  1  0
 33 40  1  6
 34 35  1  0
 34 41  1  6
 36 35  1  0
 35 42  1  1
 36 37  1  1
 43 36  1  0
 37 44  1  0
 38 39  1  0
 40 38  1  0
 38 45  2  0
 46 41  1  6
 46 47  1  0
 46 55  1  0
 47 48  1  0
 47 52  1  1
 48 49  1  0
 48 53  1  6
 50 49  1  0
 49 54  1  6
 50 51  1  6
 55 50  1  0
 51 56  1  0
 57 52  1  1
 57 58  1  0
 57 66  1  0
 58 59  1  0
 58 63  1  6
 59 60  1  0
 59 64  1  6
 61 60  1  0
 60 65  1  6
 61 62  1  6
 66 61  1  0
 68 67  1  0
 67 72  1  0
 67 74  1  6
 69 68  1  0
 68 75  1  1
 69 70  1  0
 69 76  1  1
 70 71  1  1
 70 77  1  0
 71 78  1  0
 72 73  1  6
 72 77  1  0
M  END
$$$$
