
     RDKit          3D

 78 83  0  0  0  0  0  0  0  0999 V2000
  -39.4238   -7.0183   63.2628 C   0  0  0  0  0  0  0  0  0  0  0  0
  -38.6577   -7.5802   64.4947 C   0  0  1  0  0  0  0  0  0  0  0  0
  -39.6085   -8.0572   65.5960 C   0  0  0  0  0  0  0  0  0  0  0  0
  -40.0719   -9.4864   65.3937 C   0  0  1  0  0  0  0  0  0  0  0  0
  -38.8536  -10.4089   65.1941 C   0  0  2  0  0  0  0  0  0  0  0  0
  -38.1051   -9.9286   63.9235 C   0  0  2  0  0  0  0  0  0  0  0  0
  -36.7892  -10.7087   63.6435 C   0  0  1  0  0  0  0  0  0  0  0  0
  -35.9985  -10.1200   62.4431 C   0  0  1  0  0  0  0  0  0  0  0  0
  -34.7217  -10.9170   62.0993 C   0  0  0  0  0  0  0  0  0  0  0  0
  -38.9266  -12.6696   64.1650 C   0  0  0  0  0  0  0  0  0  0  0  0
  -38.2065  -13.8969   64.6573 C   0  0  0  0  0  0  0  0  0  0  0  0
  -39.3212  -11.8061   65.1580 N   0  0  0  0  0  0  0  0  0  0  0  0
  -38.7025   -7.0283   62.1223 O   0  0  0  0  0  0  0  0  0  0  0  0
  -40.5722   -6.5829   63.2453 O   0  0  0  0  0  0  0  0  0  0  0  0
  -40.8119   -9.9336   66.5399 O   0  0  0  0  0  0  0  0  0  0  0  0
  -37.7223   -8.5477   64.0436 O   0  0  0  0  0  0  0  0  0  0  0  0
  -35.9821  -10.7200   64.8245 O   0  0  0  0  0  0  0  0  0  0  0  0
  -36.8584  -10.0872   61.2911 O   0  0  0  0  0  0  0  0  0  0  0  0
  -34.0262  -10.3757   60.9803 O   0  0  0  0  0  0  0  0  0  0  0  0
  -39.1567  -12.4803   62.9694 O   0  0  0  0  0  0  0  0  0  0  0  0
  -36.7694   -6.4823   68.6623 C   0  0  1  0  0  0  0  0  0  0  0  0
  -37.6676   -6.0678   67.4669 C   0  0  1  0  0  0  0  0  0  0  0  0
  -37.1544   -6.7801   66.2099 C   0  0  2  0  0  0  0  0  0  0  0  0
  -35.6881   -6.3936   65.9644 C   0  0  2  0  0  0  0  0  0  0  0  0
  -34.9039   -6.8779   67.1956 C   0  0  1  0  0  0  0  0  0  0  0  0
  -33.3932   -6.6605   67.0801 C   0  0  0  0  0  0  0  0  0  0  0  0
  -39.0329   -6.4667   67.6934 O   0  0  0  0  0  0  0  0  0  0  0  0
  -37.9499   -6.4370   65.0521 O   0  0  0  0  0  0  0  0  0  0  0  0
  -35.6662   -4.9603   65.8118 O   0  0  0  0  0  0  0  0  0  0  0  0
  -35.3793   -6.2430   68.3967 O   0  0  0  0  0  0  0  0  0  0  0  0
  -32.7129   -6.9100   68.3043 O   0  0  0  0  0  0  0  0  0  0  0  0
  -35.9271   -4.4981   64.4839 C   0  0  1  0  0  0  0  0  0  0  0  0
  -36.5473   -3.0677   64.5668 C   0  0  1  0  0  0  0  0  0  0  0  0
  -36.1207   -2.2127   63.3368 C   0  0  2  0  0  0  0  0  0  0  0  0
  -35.9469   -3.1219   62.1086 C   0  0  2  0  0  0  0  0  0  0  0  0
  -34.8802   -4.2142   62.3660 C   0  0  1  0  0  0  0  0  0  0  0  0
  -33.5064   -3.8889   61.7682 C   0  0  0  0  0  0  0  0  0  0  0  0
  -38.6518   -2.9202   65.9023 C   0  0  0  0  0  0  0  0  0  0  0  0
  -40.1392   -2.7088   65.7865 C   0  0  0  0  0  0  0  0  0  0  0  0
  -38.0199   -3.1270   64.6993 N   0  0  0  0  0  0  0  0  0  0  0  0
  -34.8743   -1.5427   63.6187 O   0  0  0  0  0  0  0  0  0  0  0  0
  -35.7287   -2.3399   60.9366 O   0  0  0  0  0  0  0  0  0  0  0  0
  -34.7082   -4.4830   63.7607 O   0  0  0  0  0  0  0  0  0  0  0  0
  -32.6471   -5.0324   61.8246 O   0  0  0  0  0  0  0  0  0  0  0  0
  -38.0736   -2.8833   66.9831 O   0  0  0  0  0  0  0  0  0  0  0  0
  -34.7026   -0.3467   62.8480 C   0  0  1  0  0  0  0  0  0  0  0  0
  -34.0363    0.7226   63.7500 C   0  0  1  0  0  0  0  0  0  0  0  0
  -33.5732    1.9197   62.8945 C   0  0  2  0  0  0  0  0  0  0  0  0
  -32.8147    1.4762   61.6367 C   0  0  2  0  0  0  0  0  0  0  0  0
  -33.6733    0.4655   60.8662 C   0  0  1  0  0  0  0  0  0  0  0  0
  -33.0021   -0.0387   59.5875 C   0  0  0  0  0  0  0  0  0  0  0  0
  -35.0447    1.1830   64.6797 O   0  0  0  0  0  0  0  0  0  0  0  0
  -32.7133    2.7849   63.6567 O   0  0  0  0  0  0  0  0  0  0  0  0
  -31.5549    0.9371   62.0827 O   0  0  0  0  0  0  0  0  0  0  0  0
  -33.9201   -0.6786   61.6959 O   0  0  0  0  0  0  0  0  0  0  0  0
  -33.7310    0.4255   58.4521 O   0  0  0  0  0  0  0  0  0  0  0  0
  -34.7800    0.8311   66.0419 C   0  0  1  0  0  0  0  0  0  0  0  0
  -36.1638    0.5753   66.6815 C   0  0  2  0  0  0  0  0  0  0  0  0
  -36.0406    0.0252   68.1074 C   0  0  1  0  0  0  0  0  0  0  0  0
  -34.7111   -0.7181   68.3271 C   0  0  1  0  0  0  0  0  0  0  0  0
  -34.2265   -1.3247   67.0009 C   0  0  2  0  0  0  0  0  0  0  0  0
  -32.9703   -2.1769   67.1697 C   0  0  0  0  0  0  0  0  0  0  0  0
  -36.9012   -0.3783   65.8829 O   0  0  0  0  0  0  0  0  0  0  0  0
  -36.1607    1.0768   69.0826 O   0  0  0  0  0  0  0  0  0  0  0  0
  -33.7658    0.2446   68.8477 O   0  0  0  0  0  0  0  0  0  0  0  0
  -33.9103   -0.3058   66.0452 O   0  0  0  0  0  0  0  0  0  0  0  0
  -35.6014   -5.7390   73.2783 C   0  0  2  0  0  0  0  0  0  0  0  0
  -35.7031   -5.4837   71.7764 C   0  0  2  0  0  0  0  0  0  0  0  0
  -36.8276   -6.2901   71.0911 C   0  0  1  0  0  0  0  0  0  0  0  0
  -38.1164   -6.2282   71.9403 C   0  0  1  0  0  0  0  0  0  0  0  0
  -39.1896   -7.1946   71.4192 C   0  0  0  0  0  0  0  0  0  0  0  0
  -36.9824   -5.6792   73.9348 C   0  0  2  0  0  0  0  0  0  0  0  0
  -36.8434   -6.0623   75.2984 O   0  0  0  0  0  0  0  0  0  0  0  0
  -34.7481   -4.7472   73.8793 O   0  0  0  0  0  0  0  0  0  0  0  0
  -34.4311   -5.8046   71.1892 O   0  0  0  0  0  0  0  0  0  0  0  0
  -37.1618   -5.7199   69.8091 O   0  0  0  0  0  0  0  0  0  0  0  0
  -37.8740   -6.5855   73.3125 O   0  0  0  0  0  0  0  0  0  0  0  0
  -40.3543   -7.1389   72.2488 O   0  0  0  0  0  0  0  0  0  0  0  0
  2  1  1  0
  1 13  1  0
  1 14  2  0
  2  3  1  0
  2 16  1  0
  2 28  1  1
  3  4  1  0
  4  5  1  0
  4 15  1  1
  6  5  1  0
  5 12  1  6
  6  7  1  0
  6 16  1  1
  7  8  1  0
  7 17  1  1
  8  9  1  0
  8 18  1  6
  9 19  1  0
 10 11  1  0
 12 10  1  0
 10 20  2  0
 21 22  1  0
 21 30  1  0
 21 76  1  1
 22 23  1  0
 22 27  1  1
 23 24  1  0
 23 28  1  6
 25 24  1  0
 24 29  1  1
 25 26  1  6
 30 25  1  0
 26 31  1  0
 32 29  1  1
 32 33  1  0
 32 43  1  0
 33 34  1  0
 33 40  1  6
 34 35  1  0
 34 41  1  1
 36 35  1  0
 35 42  1  6
 36 37  1  1
 43 36  1  0
 37 44  1  0
 38 39  1  0
 40 38  1  0
 38 45  2  0
 46 41  1  1
 46 47  1  0
 46 55  1  0
 47 48  1  0
 47 52  1  1
 48 49  1  0
 48 53  1  1
 50 49  1  0
 49 54  1  1
 50 51  1  6
 55 50  1  0
 51 56  1  0
 57 52  1  6
 57 58  1  0
 57 66  1  0
 58 59  1  0
 58 63  1  6
 59 60  1  0
 59 64  1  1
 61 60  1  0
 60 65  1  6
 61 62  1  1
 66 61  1  0
 68 67  1  0
 67 72  1  0
 67 74  1  1
 69 68  1  0
 68 75  1  6
 69 70  1  0
 69 76  1  6
 70 71  1  6
 70 77  1  0
 71 78  1  0
 72 73  1  1
 72 77  1  0
M  END
$$$$
