
     RDKit          3D

 78 83  0  0  0  0  0  0  0  0999 V2000
  -53.6360    4.1021   47.2441 C   0  0  0  0  0  0  0  0  0  0  0  0
  -52.6965    4.5806   46.1000 C   0  0  1  0  0  0  0  0  0  0  0  0
  -52.2097    3.4183   45.2303 C   0  0  0  0  0  0  0  0  0  0  0  0
  -53.1781    3.0722   44.1164 C   0  0  1  0  0  0  0  0  0  0  0  0
  -53.5228    4.3390   43.3093 C   0  0  2  0  0  0  0  0  0  0  0  0
  -54.1962    5.3442   44.2796 C   0  0  2  0  0  0  0  0  0  0  0  0
  -54.5179    6.7190   43.6276 C   0  0  1  0  0  0  0  0  0  0  0  0
  -55.1180    7.7281   44.6447 C   0  0  1  0  0  0  0  0  0  0  0  0
  -55.5314    9.0712   44.0051 C   0  0  0  0  0  0  0  0  0  0  0  0
  -54.1934    4.5719   40.9280 C   0  0  0  0  0  0  0  0  0  0  0  0
  -55.3521    4.3737   39.9871 C   0  0  0  0  0  0  0  0  0  0  0  0
  -54.3362    3.9487   42.1439 N   0  0  0  0  0  0  0  0  0  0  0  0
  -53.2049    2.9884   47.8725 O   0  0  0  0  0  0  0  0  0  0  0  0
  -54.6883    4.6257   47.6006 O   0  0  0  0  0  0  0  0  0  0  0  0
  -52.5918    2.1030   43.2342 O   0  0  0  0  0  0  0  0  0  0  0  0
  -53.3387    5.6332   45.3971 O   0  0  0  0  0  0  0  0  0  0  0  0
  -53.3331    7.2498   43.0270 O   0  0  0  0  0  0  0  0  0  0  0  0
  -56.2663    7.1304   45.2704 O   0  0  0  0  0  0  0  0  0  0  0  0
  -56.1178    9.9652   44.9463 O   0  0  0  0  0  0  0  0  0  0  0  0
  -53.2153    5.2584   40.6274 O   0  0  0  0  0  0  0  0  0  0  0  0
  -49.5939    8.3032   46.1109 C   0  0  1  0  0  0  0  0  0  0  0  0
  -49.7720    6.7898   46.4034 C   0  0  1  0  0  0  0  0  0  0  0  0
  -51.2728    6.4921   46.5011 C   0  0  2  0  0  0  0  0  0  0  0  0
  -51.8942    7.3506   47.6131 C   0  0  2  0  0  0  0  0  0  0  0  0
  -51.6787    8.8153   47.1967 C   0  0  1  0  0  0  0  0  0  0  0  0
  -52.3262    9.8218   48.1510 C   0  0  0  0  0  0  0  0  0  0  0  0
  -49.2168    5.9962   45.3373 O   0  0  0  0  0  0  0  0  0  0  0  0
  -51.5122    5.0923   46.7739 O   0  0  0  0  0  0  0  0  0  0  0  0
  -51.2013    7.0038   48.8288 O   0  0  0  0  0  0  0  0  0  0  0  0
  -50.2771    9.1193   47.0738 O   0  0  0  0  0  0  0  0  0  0  0  0
  -51.8022   11.1349   47.9937 O   0  0  0  0  0  0  0  0  0  0  0  0
  -52.0450    6.8520   49.9734 C   0  0  1  0  0  0  0  0  0  0  0  0
  -51.4282    5.7628   50.9064 C   0  0  1  0  0  0  0  0  0  0  0  0
  -51.7322    6.0837   52.4000 C   0  0  2  0  0  0  0  0  0  0  0  0
  -53.0908    6.7959   52.5110 C   0  0  2  0  0  0  0  0  0  0  0  0
  -53.1033    8.1106   51.6934 C   0  0  1  0  0  0  0  0  0  0  0  0
  -52.8736    9.3673   52.5410 C   0  0  0  0  0  0  0  0  0  0  0  0
  -51.0843    3.3060   50.6238 C   0  0  0  0  0  0  0  0  0  0  0  0
  -49.8912    3.3503   49.7045 C   0  0  0  0  0  0  0  0  0  0  0  0
  -51.8993    4.4094   50.5377 N   0  0  0  0  0  0  0  0  0  0  0  0
  -50.6980    6.9359   52.9347 O   0  0  0  0  0  0  0  0  0  0  0  0
  -53.4672    6.9407   53.8785 O   0  0  0  0  0  0  0  0  0  0  0  0
  -52.1360    8.1000   50.6392 O   0  0  0  0  0  0  0  0  0  0  0  0
  -52.4212    9.0163   53.8530 O   0  0  0  0  0  0  0  0  0  0  0  0
  -51.3018    2.3486   51.3586 O   0  0  0  0  0  0  0  0  0  0  0  0
  -49.6975    6.2058   53.6558 C   0  0  1  0  0  0  0  0  0  0  0  0
  -49.1391    7.1202   54.7751 C   0  0  1  0  0  0  0  0  0  0  0  0
  -48.2751    6.2934   55.7494 C   0  0  2  0  0  0  0  0  0  0  0  0
  -48.9632    4.9890   56.1726 C   0  0  2  0  0  0  0  0  0  0  0  0
  -49.3841    4.2161   54.9166 C   0  0  1  0  0  0  0  0  0  0  0  0
  -50.0814    2.8921   55.2337 C   0  0  0  0  0  0  0  0  0  0  0  0
  -48.2967    8.1080   54.1365 O   0  0  0  0  0  0  0  0  0  0  0  0
  -47.9813    7.0523   56.9354 O   0  0  0  0  0  0  0  0  0  0  0  0
  -50.0711    5.3612   57.0157 O   0  0  0  0  0  0  0  0  0  0  0  0
  -50.3058    5.0102   54.1564 O   0  0  0  0  0  0  0  0  0  0  0  0
  -50.0659    2.6713   56.6432 O   0  0  0  0  0  0  0  0  0  0  0  0
  -47.0646    8.3497   54.8243 C   0  0  1  0  0  0  0  0  0  0  0  0
  -46.2396    7.0518   54.6676 C   0  0  2  0  0  0  0  0  0  0  0  0
  -44.8161    7.2109   55.2144 C   0  0  1  0  0  0  0  0  0  0  0  0
  -44.3461    8.6760   55.1847 C   0  0  1  0  0  0  0  0  0  0  0  0
  -45.0403    9.4241   54.0359 C   0  0  2  0  0  0  0  0  0  0  0  0
  -44.5315   10.8552   53.8751 C   0  0  0  0  0  0  0  0  0  0  0  0
  -46.1577    6.6921   53.2695 O   0  0  0  0  0  0  0  0  0  0  0  0
  -44.7169    6.7102   56.5601 O   0  0  0  0  0  0  0  0  0  0  0  0
  -44.6728    9.2544   56.4693 O   0  0  0  0  0  0  0  0  0  0  0  0
  -46.4545    9.5087   54.2469 O   0  0  0  0  0  0  0  0  0  0  0  0
  -45.9706   11.6914   45.9909 C   0  0  2  0  0  0  0  0  0  0  0  0
  -46.7057   10.5106   46.6206 C   0  0  2  0  0  0  0  0  0  0  0  0
  -47.8293    9.9401   45.7283 C   0  0  1  0  0  0  0  0  0  0  0  0
  -47.3336    9.8101   44.2711 C   0  0  1  0  0  0  0  0  0  0  0  0
  -48.4779    9.4627   43.3084 C   0  0  0  0  0  0  0  0  0  0  0  0
  -45.6013   11.3892   44.5369 C   0  0  2  0  0  0  0  0  0  0  0  0
  -45.0497   12.5694   43.9638 O   0  0  0  0  0  0  0  0  0  0  0  0
  -44.7702   11.9657   46.7370 O   0  0  0  0  0  0  0  0  0  0  0  0
  -47.2433   10.9487   47.8794 O   0  0  0  0  0  0  0  0  0  0  0  0
  -48.1957    8.6102   46.1495 O   0  0  0  0  0  0  0  0  0  0  0  0
  -46.7502   11.0339   43.7903 O   0  0  0  0  0  0  0  0  0  0  0  0
  -47.9981    9.4174   41.9609 O   0  0  0  0  0  0  0  0  0  0  0  0
  2  1  1  0
  1 13  1  0
  1 14  2  0
  2  3  1  0
  2 16  1  0
  2 28  1  1
  3  4  1  0
  4  5  1  0
  4 15  1  6
  6  5  1  0
  5 12  1  6
  6  7  1  0
  6 16  1  1
  7  8  1  0
  7 17  1  1
  8  9  1  0
  8 18  1  6
  9 19  1  0
 10 11  1  0
 12 10  1  0
 10 20  2  0
 21 22  1  0
 21 30  1  0
 21 76  1  1
 22 23  1  0
 22 27  1  6
 23 24  1  0
 23 28  1  1
 25 24  1  0
 24 29  1  1
 25 26  1  1
 30 25  1  0
 26 31  1  0
 32 29  1  6
 32 33  1  0
 32 43  1  0
 33 34  1  0
 33 40  1  6
 34 35  1  0
 34 41  1  6
 36 35  1  0
 35 42  1  1
 36 37  1  1
 43 36  1  0
 37 44  1  0
 38 39  1  0
 40 38  1  0
 38 45  2  0
 46 41  1  1
 46 47  1  0
 46 55  1  0
 47 48  1  0
 47 52  1  6
 48 49  1  0
 48 53  1  1
 50 49  1  0
 49 54  1  1
 50 51  1  1
 55 50  1  0
 51 56  1  0
 57 52  1  6
 57 58  1  0
 57 66  1  0
 58 59  1  0
 58 63  1  6
 59 60  1  0
 59 64  1  1
 61 60  1  0
 60 65  1  1
 61 62  1  1
 66 61  1  0
 68 67  1  0
 67 72  1  0
 67 74  1  1
 69 68  1  0
 68 75  1  1
 69 70  1  0
 69 76  1  1
 70 71  1  6
 70 77  1  0
 71 78  1  0
 72 73  1  6
 72 77  1  0
M  END
$$$$
