
     RDKit          3D

 78 83  0  0  0  0  0  0  0  0999 V2000
  -37.7306   -3.6681   61.8056 C   0  0  0  0  0  0  0  0  0  0  0  0
  -37.5013   -5.1834   62.0732 C   0  0  1  0  0  0  0  0  0  0  0  0
  -38.8114   -5.9227   62.3589 C   0  0  0  0  0  0  0  0  0  0  0  0
  -39.5136   -6.3830   61.0966 C   0  0  1  0  0  0  0  0  0  0  0  0
  -38.5361   -7.1862   60.2165 C   0  0  2  0  0  0  0  0  0  0  0  0
  -37.3647   -6.2435   59.8363 C   0  0  2  0  0  0  0  0  0  0  0  0
  -36.2407   -6.9442   59.0214 C   0  0  1  0  0  0  0  0  0  0  0  0
  -34.9438   -6.0920   58.9518 C   0  0  1  0  0  0  0  0  0  0  0  0
  -33.9044   -6.6374   57.9488 C   0  0  0  0  0  0  0  0  0  0  0  0
  -39.2137   -7.1932   57.8258 C   0  0  0  0  0  0  0  0  0  0  0  0
  -38.2163   -7.8467   56.9065 C   0  0  0  0  0  0  0  0  0  0  0  0
  -39.2825   -7.7523   59.0788 N   0  0  0  0  0  0  0  0  0  0  0  0
  -38.6851   -3.1163   62.5837 O   0  0  0  0  0  0  0  0  0  0  0  0
  -37.1469   -2.9691   60.9814 O   0  0  0  0  0  0  0  0  0  0  0  0
  -40.6336   -7.2172   61.4296 O   0  0  0  0  0  0  0  0  0  0  0  0
  -36.7251   -5.7182   61.0121 O   0  0  0  0  0  0  0  0  0  0  0  0
  -35.9719   -8.2294   59.5890 O   0  0  0  0  0  0  0  0  0  0  0  0
  -35.2913   -4.7457   58.5857 O   0  0  0  0  0  0  0  0  0  0  0  0
  -32.7356   -5.8262   57.8804 O   0  0  0  0  0  0  0  0  0  0  0  0
  -39.9199   -6.2509   57.4629 O   0  0  0  0  0  0  0  0  0  0  0  0
  -34.0796   -7.9235   63.6764 C   0  0  1  0  0  0  0  0  0  0  0  0
  -35.4687   -7.2632   63.8815 C   0  0  1  0  0  0  0  0  0  0  0  0
  -35.4690   -5.9097   63.1613 C   0  0  2  0  0  0  0  0  0  0  0  0
  -34.3449   -5.0282   63.7265 C   0  0  2  0  0  0  0  0  0  0  0  0
  -33.0298   -5.7720   63.4393 C   0  0  1  0  0  0  0  0  0  0  0  0
  -31.7827   -4.9864   63.8524 C   0  0  0  0  0  0  0  0  0  0  0  0
  -36.5103   -8.0820   63.3166 O   0  0  0  0  0  0  0  0  0  0  0  0
  -36.7398   -5.2365   63.3125 O   0  0  0  0  0  0  0  0  0  0  0  0
  -34.6127   -4.8829   65.1355 O   0  0  0  0  0  0  0  0  0  0  0  0
  -33.0094   -7.0586   64.0843 O   0  0  0  0  0  0  0  0  0  0  0  0
  -30.5786   -5.6856   63.5612 O   0  0  0  0  0  0  0  0  0  0  0  0
  -35.5048   -3.8152   65.4658 C   0  0  1  0  0  0  0  0  0  0  0  0
  -36.0694   -4.0630   66.9001 C   0  0  1  0  0  0  0  0  0  0  0  0
  -36.3309   -2.7109   67.6279 C   0  0  2  0  0  0  0  0  0  0  0  0
  -36.7346   -1.6393   66.6013 C   0  0  2  0  0  0  0  0  0  0  0  0
  -35.6299   -1.4399   65.5349 C   0  0  1  0  0  0  0  0  0  0  0  0
  -34.7342   -0.2229   65.7936 C   0  0  0  0  0  0  0  0  0  0  0  0
  -38.2878   -4.7765   67.7967 C   0  0  0  0  0  0  0  0  0  0  0  0
  -37.9471   -3.8572   68.9410 C   0  0  0  0  0  0  0  0  0  0  0  0
  -37.2888   -4.9003   66.8609 N   0  0  0  0  0  0  0  0  0  0  0  0
  -35.1351   -2.2899   68.3168 O   0  0  0  0  0  0  0  0  0  0  0  0
  -37.1468   -0.4455   67.2630 O   0  0  0  0  0  0  0  0  0  0  0  0
  -34.7915   -2.5919   65.4041 O   0  0  0  0  0  0  0  0  0  0  0  0
  -33.7449   -0.0961   64.7667 O   0  0  0  0  0  0  0  0  0  0  0  0
  -39.3593   -5.3700   67.7383 O   0  0  0  0  0  0  0  0  0  0  0  0
  -35.4125   -1.4430   69.4392 C   0  0  1  0  0  0  0  0  0  0  0  0
  -34.1746   -0.5455   69.6898 C   0  0  1  0  0  0  0  0  0  0  0  0
  -34.5273    0.5708   70.6943 C   0  0  2  0  0  0  0  0  0  0  0  0
  -35.8519    1.2645   70.3505 C   0  0  2  0  0  0  0  0  0  0  0  0
  -36.9481    0.2022   70.2019 C   0  0  1  0  0  0  0  0  0  0  0  0
  -38.3153    0.7964   69.8591 C   0  0  0  0  0  0  0  0  0  0  0  0
  -33.1518   -1.3853   70.2745 O   0  0  0  0  0  0  0  0  0  0  0  0
  -33.4921    1.5688   70.7272 O   0  0  0  0  0  0  0  0  0  0  0  0
  -35.6207    2.0230   69.1472 O   0  0  0  0  0  0  0  0  0  0  0  0
  -36.5977   -0.6972   69.1406 O   0  0  0  0  0  0  0  0  0  0  0  0
  -39.3079    0.2324   70.7150 O   0  0  0  0  0  0  0  0  0  0  0  0
  -33.2862   -2.7730   69.9485 C   0  0  1  0  0  0  0  0  0  0  0  0
  -34.8036   -3.0156   69.7815 C   0  0  2  0  0  0  0  0  0  0  0  0
  -35.1024   -4.4285   69.2667 C   0  0  1  0  0  0  0  0  0  0  0  0
  -33.9263   -5.0116   68.4635 C   0  0  1  0  0  0  0  0  0  0  0  0
  -33.1357   -3.8756   67.7956 C   0  0  2  0  0  0  0  0  0  0  0  0
  -32.0224   -4.3911   66.8859 C   0  0  0  0  0  0  0  0  0  0  0  0
  -35.3499   -2.0596   68.8442 O   0  0  0  0  0  0  0  0  0  0  0  0
  -35.4224   -5.3200   70.3503 O   0  0  0  0  0  0  0  0  0  0  0  0
  -33.1044   -5.7566   69.3914 O   0  0  0  0  0  0  0  0  0  0  0  0
  -32.5156   -3.0280   68.7695 O   0  0  0  0  0  0  0  0  0  0  0  0
  -30.6724   -9.8707   66.0800 C   0  0  2  0  0  0  0  0  0  0  0  0
  -31.8512   -9.0306   65.5946 C   0  0  2  0  0  0  0  0  0  0  0  0
  -32.7375   -9.7563   64.5591 C   0  0  1  0  0  0  0  0  0  0  0  0
  -33.0026  -11.2083   65.0142 C   0  0  1  0  0  0  0  0  0  0  0  0
  -33.6862  -12.0346   63.9156 C   0  0  0  0  0  0  0  0  0  0  0  0
  -31.1263  -11.2866   66.4421 C   0  0  2  0  0  0  0  0  0  0  0  0
  -29.9710  -12.0588   66.7495 O   0  0  0  0  0  0  0  0  0  0  0  0
  -30.0835   -9.2515   67.2387 O   0  0  0  0  0  0  0  0  0  0  0  0
  -31.3241   -7.8162   65.0350 O   0  0  0  0  0  0  0  0  0  0  0  0
  -34.0299   -9.1243   64.4550 O   0  0  0  0  0  0  0  0  0  0  0  0
  -31.7851  -11.8979   65.3486 O   0  0  0  0  0  0  0  0  0  0  0  0
  -32.8224  -12.1670   62.7823 O   0  0  0  0  0  0  0  0  0  0  0  0
  2  1  1  0
  1 13  1  0
  1 14  2  0
  2  3  1  0
  2 16  1  0
  2 28  1  1
  3  4  1  0
  4  5  1  0
  4 15  1  1
  6  5  1  0
  5 12  1  6
  6  7  1  0
  6 16  1  1
  7  8  1  0
  7 17  1  1
  8  9  1  0
  8 18  1  6
  9 19  1  0
 10 11  1  0
 12 10  1  0
 10 20  2  0
 21 22  1  0
 21 30  1  0
 21 76  1  1
 22 23  1  0
 22 27  1  6
 23 24  1  0
 23 28  1  1
 25 24  1  0
 24 29  1  1
 25 26  1  1
 30 25  1  0
 26 31  1  0
 32 29  1  1
 32 33  1  0
 32 43  1  0
 33 34  1  0
 33 40  1  6
 34 35  1  0
 34 41  1  6
 36 35  1  0
 35 42  1  1
 36 37  1  1
 43 36  1  0
 37 44  1  0
 38 39  1  0
 40 38  1  0
 38 45  2  0
 46 41  1  6
 46 47  1  0
 46 55  1  0
 47 48  1  0
 47 52  1  1
 48 49  1  0
 48 53  1  6
 50 49  1  0
 49 54  1  6
 50 51  1  6
 55 50  1  0
 51 56  1  0
 57 52  1  6
 57 58  1  0
 57 66  1  0
 58 59  1  0
 58 63  1  6
 59 60  1  0
 59 64  1  1
 61 60  1  0
 60 65  1  1
 61 62  1  6
 66 61  1  0
 68 67  1  0
 67 72  1  0
 67 74  1  1
 69 68  1  0
 68 75  1  6
 69 70  1  0
 69 76  1  1
 70 71  1  6
 70 77  1  0
 71 78  1  0
 72 73  1  6
 72 77  1  0
M  END
$$$$
