
     RDKit          3D

 78 83  0  0  0  0  0  0  0  0999 V2000
  -46.4320   10.6600   49.3974 C   0  0  0  0  0  0  0  0  0  0  0  0
  -45.8846   10.2002   48.0157 C   0  0  1  0  0  0  0  0  0  0  0  0
  -45.6681   11.3774   47.0610 C   0  0  0  0  0  0  0  0  0  0  0  0
  -44.3128   12.0339   47.2356 C   0  0  1  0  0  0  0  0  0  0  0  0
  -43.2011   10.9694   47.1577 C   0  0  2  0  0  0  0  0  0  0  0  0
  -43.4349    9.9620   48.3135 C   0  0  2  0  0  0  0  0  0  0  0  0
  -42.4404    8.7664   48.3082 C   0  0  1  0  0  0  0  0  0  0  0  0
  -42.9300    7.5882   49.1943 C   0  0  1  0  0  0  0  0  0  0  0  0
  -41.8828    6.4651   49.3551 C   0  0  0  0  0  0  0  0  0  0  0  0
  -40.7377   10.9782   47.4840 C   0  0  0  0  0  0  0  0  0  0  0  0
  -40.8730    9.4786   47.4938 C   0  0  0  0  0  0  0  0  0  0  0  0
  -41.8943   11.6507   47.1720 N   0  0  0  0  0  0  0  0  0  0  0  0
  -47.6129   11.3092   49.3264 O   0  0  0  0  0  0  0  0  0  0  0  0
  -45.9010   10.4938   50.4925 O   0  0  0  0  0  0  0  0  0  0  0  0
  -44.0980   13.0080   46.2029 O   0  0  0  0  0  0  0  0  0  0  0  0
  -44.7468    9.3792   48.2299 O   0  0  0  0  0  0  0  0  0  0  0  0
  -42.2254    8.3321   46.9624 O   0  0  0  0  0  0  0  0  0  0  0  0
  -43.2791    8.0970   50.4930 O   0  0  0  0  0  0  0  0  0  0  0  0
  -42.2838    5.4775   50.2999 O   0  0  0  0  0  0  0  0  0  0  0  0
  -39.6661   11.5409   47.7153 O   0  0  0  0  0  0  0  0  0  0  0  0
  -46.3551    7.0727   44.4956 C   0  0  1  0  0  0  0  0  0  0  0  0
  -46.9116    8.3253   45.2228 C   0  0  1  0  0  0  0  0  0  0  0  0
  -46.4696    8.2660   46.6897 C   0  0  2  0  0  0  0  0  0  0  0  0
  -46.9933    6.9718   47.3307 C   0  0  2  0  0  0  0  0  0  0  0  0
  -46.3541    5.8140   46.5458 C   0  0  1  0  0  0  0  0  0  0  0  0
  -46.6918    4.4333   47.1135 C   0  0  0  0  0  0  0  0  0  0  0  0
  -46.3862    9.5308   44.6353 O   0  0  0  0  0  0  0  0  0  0  0  0
  -46.9565    9.4088   47.4298 O   0  0  0  0  0  0  0  0  0  0  0  0
  -48.4291    7.0098   47.2073 O   0  0  0  0  0  0  0  0  0  0  0  0
  -46.7325    5.8565   45.1577 O   0  0  0  0  0  0  0  0  0  0  0  0
  -45.5311    3.6506   47.3662 O   0  0  0  0  0  0  0  0  0  0  0  0
  -49.1225    7.3438   48.4126 C   0  0  1  0  0  0  0  0  0  0  0  0
  -50.6223    7.6070   48.0682 C   0  0  1  0  0  0  0  0  0  0  0  0
  -51.5404    7.1758   49.2502 C   0  0  2  0  0  0  0  0  0  0  0  0
  -50.8026    7.3864   50.5831 C   0  0  2  0  0  0  0  0  0  0  0  0
  -49.4889    6.5685   50.6322 C   0  0  1  0  0  0  0  0  0  0  0  0
  -49.6080    5.2549   51.4136 C   0  0  0  0  0  0  0  0  0  0  0  0
  -51.4533    9.3757   46.5141 C   0  0  0  0  0  0  0  0  0  0  0  0
  -51.6830   10.8571   46.3615 C   0  0  0  0  0  0  0  0  0  0  0  0
  -50.8484    9.0213   47.6963 N   0  0  0  0  0  0  0  0  0  0  0  0
  -51.8918    5.7835   49.1104 O   0  0  0  0  0  0  0  0  0  0  0  0
  -51.6845    7.1643   51.6813 O   0  0  0  0  0  0  0  0  0  0  0  0
  -48.9914    6.2671   49.3251 O   0  0  0  0  0  0  0  0  0  0  0  0
  -48.4282    5.0195   52.1894 O   0  0  0  0  0  0  0  0  0  0  0  0
  -51.8048    8.5730   45.6562 O   0  0  0  0  0  0  0  0  0  0  0  0
  -52.9400    5.3852   50.0030 C   0  0  1  0  0  0  0  0  0  0  0  0
  -53.7677    4.2702   49.3156 C   0  0  1  0  0  0  0  0  0  0  0  0
  -54.7197    3.6146   50.3370 C   0  0  2  0  0  0  0  0  0  0  0  0
  -54.0105    3.2668   51.6524 C   0  0  2  0  0  0  0  0  0  0  0  0
  -53.3050    4.5198   52.1857 C   0  0  1  0  0  0  0  0  0  0  0  0
  -52.5658    4.2760   53.5026 C   0  0  0  0  0  0  0  0  0  0  0  0
  -54.5621    4.9039   48.2858 O   0  0  0  0  0  0  0  0  0  0  0  0
  -55.2870    2.4073   49.7989 O   0  0  0  0  0  0  0  0  0  0  0  0
  -53.1093    2.1807   51.3610 O   0  0  0  0  0  0  0  0  0  0  0  0
  -52.3323    4.9614   51.2282 O   0  0  0  0  0  0  0  0  0  0  0  0
  -53.4976    4.2980   54.5829 O   0  0  0  0  0  0  0  0  0  0  0  0
  -54.2342    4.4794   46.9584 C   0  0  1  0  0  0  0  0  0  0  0  0
  -53.4181    5.6381   46.3412 C   0  0  2  0  0  0  0  0  0  0  0  0
  -52.8484    5.2664   44.9671 C   0  0  1  0  0  0  0  0  0  0  0  0
  -52.6577    3.7472   44.8124 C   0  0  1  0  0  0  0  0  0  0  0  0
  -52.3884    3.1121   46.1857 C   0  0  2  0  0  0  0  0  0  0  0  0
  -52.0732    1.6206   46.0909 C   0  0  0  0  0  0  0  0  0  0  0  0
  -52.3197    5.9811   47.2168 O   0  0  0  0  0  0  0  0  0  0  0  0
  -53.6943    5.7467   43.9064 O   0  0  0  0  0  0  0  0  0  0  0  0
  -53.8658    3.2248   44.2133 O   0  0  0  0  0  0  0  0  0  0  0  0
  -53.5214    3.2416   47.0522 O   0  0  0  0  0  0  0  0  0  0  0  0
  -46.3188    5.2840   39.8412 C   0  0  2  0  0  0  0  0  0  0  0  0
  -47.0667    5.7378   41.0926 C   0  0  2  0  0  0  0  0  0  0  0  0
  -46.1365    6.2656   42.2064 C   0  0  1  0  0  0  0  0  0  0  0  0
  -45.0676    7.2034   41.6033 C   0  0  1  0  0  0  0  0  0  0  0  0
  -43.9877    7.5724   42.6303 C   0  0  0  0  0  0  0  0  0  0  0  0
  -45.2753    6.3229   39.4246 C   0  0  2  0  0  0  0  0  0  0  0  0
  -44.5188    5.7852   38.3457 O   0  0  0  0  0  0  0  0  0  0  0  0
  -47.2538    5.0934   38.7631 O   0  0  0  0  0  0  0  0  0  0  0  0
  -47.8362    4.6230   41.5729 O   0  0  0  0  0  0  0  0  0  0  0  0
  -46.8740    7.0563   43.1610 O   0  0  0  0  0  0  0  0  0  0  0  0
  -44.3860    6.5971   40.4910 O   0  0  0  0  0  0  0  0  0  0  0  0
  -43.0512    8.4915   42.0593 O   0  0  0  0  0  0  0  0  0  0  0  0
  2  1  1  0
  1 13  1  0
  1 14  2  0
  2  3  1  0
  2 16  1  0
  2 28  1  6
  3  4  1  0
  4  5  1  0
  4 15  1  6
  6  5  1  0
  5 12  1  1
  6  7  1  0
  6 16  1  6
  7  8  1  0
  7 17  1  6
  8  9  1  0
  8 18  1  1
  9 19  1  0
 10 11  1  0
 12 10  1  0
 10 20  2  0
 21 22  1  0
 21 30  1  0
 21 76  1  6
 22 23  1  0
 22 27  1  6
 23 24  1  0
 23 28  1  1
 25 24  1  0
 24 29  1  6
 25 26  1  1
 30 25  1  0
 26 31  1  0
 32 29  1  6
 32 33  1  0
 32 43  1  0
 33 34  1  0
 33 40  1  1
 34 35  1  0
 34 41  1  6
 36 35  1  0
 35 42  1  1
 36 37  1  6
 43 36  1  0
 37 44  1  0
 38 39  1  0
 40 38  1  0
 38 45  2  0
 46 41  1  6
 46 47  1  0
 46 55  1  0
 47 48  1  0
 47 52  1  6
 48 49  1  0
 48 53  1  6
 50 49  1  0
 49 54  1  6
 50 51  1  1
 55 50  1  0
 51 56  1  0
 57 52  1  1
 57 58  1  0
 57 66  1  0
 58 59  1  0
 58 63  1  1
 59 60  1  0
 59 64  1  6
 61 60  1  0
 60 65  1  1
 61 62  1  6
 66 61  1  0
 68 67  1  0
 67 72  1  0
 67 74  1  6
 69 68  1  0
 68 75  1  1
 69 70  1  0
 69 76  1  1
 70 71  1  1
 70 77  1  0
 71 78  1  0
 72 73  1  6
 72 77  1  0
M  END
$$$$
