
     RDKit          3D

 78 83  0  0  0  0  0  0  0  0999 V2000
  -52.8506    6.9953   45.4476 C   0  0  0  0  0  0  0  0  0  0  0  0
  -51.6293    7.8825   45.0713 C   0  0  1  0  0  0  0  0  0  0  0  0
  -51.4611    8.0183   43.5555 C   0  0  0  0  0  0  0  0  0  0  0  0
  -52.2945    9.1413   42.9701 C   0  0  1  0  0  0  0  0  0  0  0  0
  -52.0220   10.4503   43.7366 C   0  0  2  0  0  0  0  0  0  0  0  0
  -52.4346   10.2229   45.2142 C   0  0  2  0  0  0  0  0  0  0  0  0
  -52.1272   11.4340   46.1401 C   0  0  1  0  0  0  0  0  0  0  0  0
  -52.2701   11.0769   47.6452 C   0  0  1  0  0  0  0  0  0  0  0  0
  -52.0670   12.2855   48.5843 C   0  0  0  0  0  0  0  0  0  0  0  0
  -52.8621   12.7867   43.6367 C   0  0  0  0  0  0  0  0  0  0  0  0
  -54.1730   13.4676   43.3447 C   0  0  0  0  0  0  0  0  0  0  0  0
  -52.7207   11.5521   43.0510 N   0  0  0  0  0  0  0  0  0  0  0  0
  -52.8463    5.7833   44.8542 O   0  0  0  0  0  0  0  0  0  0  0  0
  -53.7751    7.2949   46.1987 O   0  0  0  0  0  0  0  0  0  0  0  0
  -51.9632    9.3341   41.5865 O   0  0  0  0  0  0  0  0  0  0  0  0
  -51.7243    9.1082   45.7806 O   0  0  0  0  0  0  0  0  0  0  0  0
  -50.8139   11.9265   45.8593 O   0  0  0  0  0  0  0  0  0  0  0  0
  -53.5768   10.5202   47.8689 O   0  0  0  0  0  0  0  0  0  0  0  0
  -52.4952   12.0184   49.9163 O   0  0  0  0  0  0  0  0  0  0  0  0
  -52.0063   13.2965   44.3620 O   0  0  0  0  0  0  0  0  0  0  0  0
  -46.9783    8.4779   46.2164 C   0  0  1  0  0  0  0  0  0  0  0  0
  -48.0381    7.5166   45.6160 C   0  0  1  0  0  0  0  0  0  0  0  0
  -49.4261    7.9938   46.0589 C   0  0  2  0  0  0  0  0  0  0  0  0
  -49.4966    8.0112   47.5933 C   0  0  2  0  0  0  0  0  0  0  0  0
  -48.4267    9.0120   48.0615 C   0  0  1  0  0  0  0  0  0  0  0  0
  -48.4193    9.2319   49.5762 C   0  0  0  0  0  0  0  0  0  0  0  0
  -47.9856    7.5355   44.1768 O   0  0  0  0  0  0  0  0  0  0  0  0
  -50.4664    7.1384   45.5323 O   0  0  0  0  0  0  0  0  0  0  0  0
  -49.2327    6.6620   48.0272 O   0  0  0  0  0  0  0  0  0  0  0  0
  -47.1128    8.6024   47.6399 O   0  0  0  0  0  0  0  0  0  0  0  0
  -49.6034    9.8705   50.0387 O   0  0  0  0  0  0  0  0  0  0  0  0
  -50.4014    5.8732   48.2657 C   0  0  1  0  0  0  0  0  0  0  0  0
  -49.9760    4.5593   48.9937 C   0  0  1  0  0  0  0  0  0  0  0  0
  -51.0966    4.0826   49.9648 C   0  0  2  0  0  0  0  0  0  0  0  0
  -52.4726    4.4734   49.4000 C   0  0  2  0  0  0  0  0  0  0  0  0
  -52.5841    6.0052   49.2043 C   0  0  1  0  0  0  0  0  0  0  0  0
  -53.3366    6.7190   50.3332 C   0  0  0  0  0  0  0  0  0  0  0  0
  -48.3125    3.1018   47.8349 C   0  0  0  0  0  0  0  0  0  0  0  0
  -47.3175    3.8104   48.7172 C   0  0  0  0  0  0  0  0  0  0  0  0
  -49.6139    3.5008   48.0250 N   0  0  0  0  0  0  0  0  0  0  0  0
  -50.9151    4.6985   51.2568 O   0  0  0  0  0  0  0  0  0  0  0  0
  -53.5149    3.8950   50.1824 O   0  0  0  0  0  0  0  0  0  0  0  0
  -51.3030    6.6256   49.0595 O   0  0  0  0  0  0  0  0  0  0  0  0
  -54.7352    6.7970   50.0379 O   0  0  0  0  0  0  0  0  0  0  0  0
  -47.9661    2.2629   47.0102 O   0  0  0  0  0  0  0  0  0  0  0  0
  -51.3637    3.8665   52.3341 C   0  0  1  0  0  0  0  0  0  0  0  0
  -50.6841    4.3512   53.6395 C   0  0  1  0  0  0  0  0  0  0  0  0
  -51.3470    3.6796   54.8598 C   0  0  2  0  0  0  0  0  0  0  0  0
  -52.8789    3.7338   54.7920 C   0  0  2  0  0  0  0  0  0  0  0  0
  -53.3398    3.1578   53.4474 C   0  0  1  0  0  0  0  0  0  0  0  0
  -54.8605    3.1658   53.2822 C   0  0  0  0  0  0  0  0  0  0  0  0
  -49.3002    3.9336   53.5788 O   0  0  0  0  0  0  0  0  0  0  0  0
  -50.9279    4.3172   56.0791 O   0  0  0  0  0  0  0  0  0  0  0  0
  -53.2523    5.1123   54.9842 O   0  0  0  0  0  0  0  0  0  0  0  0
  -52.7926    3.9452   52.3803 O   0  0  0  0  0  0  0  0  0  0  0  0
  -55.2700    1.9906   52.5844 O   0  0  0  0  0  0  0  0  0  0  0  0
  -48.6405    3.9297   54.8494 C   0  0  1  0  0  0  0  0  0  0  0  0
  -47.2843    4.6337   54.6157 C   0  0  2  0  0  0  0  0  0  0  0  0
  -46.5232    4.8565   55.9279 C   0  0  1  0  0  0  0  0  0  0  0  0
  -47.4701    4.9388   57.1382 C   0  0  1  0  0  0  0  0  0  0  0  0
  -48.8362    5.4867   56.6963 C   0  0  2  0  0  0  0  0  0  0  0  0
  -49.7887    5.7050   57.8702 C   0  0  0  0  0  0  0  0  0  0  0  0
  -47.5034    5.9176   53.9875 O   0  0  0  0  0  0  0  0  0  0  0  0
  -45.5584    3.8126   56.1531 O   0  0  0  0  0  0  0  0  0  0  0  0
  -47.5839    3.6036   57.6818 O   0  0  0  0  0  0  0  0  0  0  0  0
  -49.4915    4.5891   55.7928 O   0  0  0  0  0  0  0  0  0  0  0  0
  -42.5925    9.7581   47.2308 C   0  0  2  0  0  0  0  0  0  0  0  0
  -43.9752    9.1118   47.2703 C   0  0  2  0  0  0  0  0  0  0  0  0
  -44.6080    8.9292   45.8737 C   0  0  1  0  0  0  0  0  0  0  0  0
  -43.5593    8.3715   44.8862 C   0  0  1  0  0  0  0  0  0  0  0  0
  -44.0738    8.3857   43.4398 C   0  0  0  0  0  0  0  0  0  0  0  0
  -41.7149    9.0999   46.1639 C   0  0  2  0  0  0  0  0  0  0  0  0
  -40.4973    9.8316   46.0764 O   0  0  0  0  0  0  0  0  0  0  0  0
  -41.9588    9.6203   48.5162 O   0  0  0  0  0  0  0  0  0  0  0  0
  -44.8193    9.9307   48.0965 O   0  0  0  0  0  0  0  0  0  0  0  0
  -45.6769    7.9617   45.9155 O   0  0  0  0  0  0  0  0  0  0  0  0
  -42.3457    9.1436   44.8975 O   0  0  0  0  0  0  0  0  0  0  0  0
  -43.0785    7.8663   42.5524 O   0  0  0  0  0  0  0  0  0  0  0  0
  2  1  1  0
  1 13  1  0
  1 14  2  0
  2  3  1  0
  2 16  1  0
  2 28  1  1
  3  4  1  0
  4  5  1  0
  4 15  1  6
  6  5  1  0
  5 12  1  6
  6  7  1  0
  6 16  1  1
  7  8  1  0
  7 17  1  1
  8  9  1  0
  8 18  1  6
  9 19  1  0
 10 11  1  0
 12 10  1  0
 10 20  2  0
 21 22  1  0
 21 30  1  0
 21 76  1  1
 22 23  1  0
 22 27  1  6
 23 24  1  0
 23 28  1  6
 25 24  1  0
 24 29  1  1
 25 26  1  1
 30 25  1  0
 26 31  1  0
 32 29  1  1
 32 33  1  0
 32 43  1  0
 33 34  1  0
 33 40  1  6
 34 35  1  0
 34 41  1  1
 36 35  1  0
 35 42  1  1
 36 37  1  1
 43 36  1  0
 37 44  1  0
 38 39  1  0
 40 38  1  0
 38 45  2  0
 46 41  1  6
 46 47  1  0
 46 55  1  0
 47 48  1  0
 47 52  1  6
 48 49  1  0
 48 53  1  1
 50 49  1  0
 49 54  1  6
 50 51  1  1
 55 50  1  0
 51 56  1  0
 57 52  1  6
 57 58  1  0
 57 66  1  0
 58 59  1  0
 58 63  1  1
 59 60  1  0
 59 64  1  1
 61 60  1  0
 60 65  1  6
 61 62  1  1
 66 61  1  0
 68 67  1  0
 67 72  1  0
 67 74  1  1
 69 68  1  0
 68 75  1  1
 69 70  1  0
 69 76  1  1
 70 71  1  6
 70 77  1  0
 71 78  1  0
 72 73  1  6
 72 77  1  0
M  END
$$$$
