
     RDKit          3D

 78 83  0  0  0  0  0  0  0  0999 V2000
  -33.6720   -5.3412   65.7822 C   0  0  0  0  0  0  0  0  0  0  0  0
  -34.0997   -6.6346   65.0308 C   0  0  1  0  0  0  0  0  0  0  0  0
  -33.0740   -7.0527   63.9737 C   0  0  0  0  0  0  0  0  0  0  0  0
  -31.9580   -7.9063   64.5432 C   0  0  1  0  0  0  0  0  0  0  0  0
  -32.5533   -9.0947   65.3232 C   0  0  2  0  0  0  0  0  0  0  0  0
  -33.3995   -8.5153   66.4865 C   0  0  2  0  0  0  0  0  0  0  0  0
  -34.1472   -9.5998   67.3130 C   0  0  1  0  0  0  0  0  0  0  0  0
  -34.9379   -8.9925   68.5042 C   0  0  1  0  0  0  0  0  0  0  0  0
  -35.6387  -10.0536   69.3800 C   0  0  0  0  0  0  0  0  0  0  0  0
  -31.5140  -11.3442   65.5088 C   0  0  0  0  0  0  0  0  0  0  0  0
  -30.4440  -12.1366   66.2120 C   0  0  0  0  0  0  0  0  0  0  0  0
  -31.4549   -9.9895   65.7293 N   0  0  0  0  0  0  0  0  0  0  0  0
  -32.8926   -4.5186   65.0495 O   0  0  0  0  0  0  0  0  0  0  0  0
  -33.9664   -5.0260   66.9323 O   0  0  0  0  0  0  0  0  0  0  0  0
  -31.1315   -8.4116   63.4835 O   0  0  0  0  0  0  0  0  0  0  0  0
  -34.4188   -7.6310   65.9899 O   0  0  0  0  0  0  0  0  0  0  0  0
  -35.0182  -10.3384   66.4515 O   0  0  0  0  0  0  0  0  0  0  0  0
  -34.0341   -8.2290   69.3212 O   0  0  0  0  0  0  0  0  0  0  0  0
  -36.2753   -9.4848   70.5202 O   0  0  0  0  0  0  0  0  0  0  0  0
  -32.3789  -11.8824   64.8154 O   0  0  0  0  0  0  0  0  0  0  0  0
  -38.1492   -6.1347   66.7995 C   0  0  1  0  0  0  0  0  0  0  0  0
  -37.0637   -6.8051   65.9162 C   0  0  1  0  0  0  0  0  0  0  0  0
  -36.3284   -5.7058   65.1405 C   0  0  2  0  0  0  0  0  0  0  0  0
  -37.3349   -4.9210   64.2856 C   0  0  2  0  0  0  0  0  0  0  0  0
  -38.3327   -4.2873   65.2695 C   0  0  1  0  0  0  0  0  0  0  0  0
  -39.3626   -3.3794   64.5927 C   0  0  0  0  0  0  0  0  0  0  0  0
  -36.1066   -7.5081   66.7312 O   0  0  0  0  0  0  0  0  0  0  0  0
  -35.2980   -6.2632   64.2928 O   0  0  0  0  0  0  0  0  0  0  0  0
  -37.9493   -5.8788   63.4005 O   0  0  0  0  0  0  0  0  0  0  0  0
  -39.0231   -5.2954   66.0302 O   0  0  0  0  0  0  0  0  0  0  0  0
  -40.3738   -2.9400   65.4916 O   0  0  0  0  0  0  0  0  0  0  0  0
  -37.5981   -5.7278   62.0224 C   0  0  1  0  0  0  0  0  0  0  0  0
  -37.1132   -4.2623   61.7892 C   0  0  1  0  0  0  0  0  0  0  0  0
  -36.0188   -4.2161   60.6818 C   0  0  2  0  0  0  0  0  0  0  0  0
  -36.2805   -5.3245   59.6481 C   0  0  2  0  0  0  0  0  0  0  0  0
  -36.2764   -6.7231   60.3122 C   0  0  1  0  0  0  0  0  0  0  0  0
  -34.9571   -7.4847   60.1400 C   0  0  0  0  0  0  0  0  0  0  0  0
  -38.5135   -2.2374   62.2052 C   0  0  0  0  0  0  0  0  0  0  0  0
  -39.7878   -1.5353   61.8131 C   0  0  0  0  0  0  0  0  0  0  0  0
  -38.2457   -3.3658   61.4676 N   0  0  0  0  0  0  0  0  0  0  0  0
  -34.7180   -4.4099   61.2749 O   0  0  0  0  0  0  0  0  0  0  0  0
  -35.3963   -5.1891   58.5378 O   0  0  0  0  0  0  0  0  0  0  0  0
  -36.5753   -6.6579   61.7099 O   0  0  0  0  0  0  0  0  0  0  0  0
  -35.0074   -8.7432   60.8203 O   0  0  0  0  0  0  0  0  0  0  0  0
  -37.7830   -1.8085   63.0919 O   0  0  0  0  0  0  0  0  0  0  0  0
  -33.6572   -3.8894   60.4638 C   0  0  1  0  0  0  0  0  0  0  0  0
  -33.7912   -2.3464   60.4179 C   0  0  1  0  0  0  0  0  0  0  0  0
  -32.5210   -1.7249   59.8018 C   0  0  2  0  0  0  0  0  0  0  0  0
  -31.2369   -2.3106   60.4037 C   0  0  2  0  0  0  0  0  0  0  0  0
  -31.2874   -3.8397   60.2965 C   0  0  1  0  0  0  0  0  0  0  0  0
  -30.0444   -4.5217   60.8708 C   0  0  0  0  0  0  0  0  0  0  0  0
  -34.9158   -2.0426   59.5599 O   0  0  0  0  0  0  0  0  0  0  0  0
  -32.5039   -0.3010   60.0042 O   0  0  0  0  0  0  0  0  0  0  0  0
  -31.1616   -1.8325   61.7611 O   0  0  0  0  0  0  0  0  0  0  0  0
  -32.4183   -4.3305   61.0301 O   0  0  0  0  0  0  0  0  0  0  0  0
  -30.0975   -5.9202   60.5934 O   0  0  0  0  0  0  0  0  0  0  0  0
  -35.5610   -0.8024   59.8687 C   0  0  1  0  0  0  0  0  0  0  0  0
  -35.6719   -0.0458   58.5253 C   0  0  2  0  0  0  0  0  0  0  0  0
  -36.4940    1.2412   58.6612 C   0  0  1  0  0  0  0  0  0  0  0  0
  -37.4986    1.1649   59.8244 C   0  0  1  0  0  0  0  0  0  0  0  0
  -37.9235   -0.2942   60.0529 C   0  0  2  0  0  0  0  0  0  0  0  0
  -39.0101   -0.4293   61.1177 C   0  0  0  0  0  0  0  0  0  0  0  0
  -36.3043   -0.8935   57.5392 O   0  0  0  0  0  0  0  0  0  0  0  0
  -35.6414    2.3855   58.8477 O   0  0  0  0  0  0  0  0  0  0  0  0
  -36.8436    1.7161   60.9900 O   0  0  0  0  0  0  0  0  0  0  0  0
  -36.8193   -1.0984   60.4836 O   0  0  0  0  0  0  0  0  0  0  0  0
  -42.0030   -7.1901   69.6576 C   0  0  2  0  0  0  0  0  0  0  0  0
  -41.1995   -7.1857   68.3592 C   0  0  2  0  0  0  0  0  0  0  0  0
  -39.7289   -6.7549   68.5486 C   0  0  1  0  0  0  0  0  0  0  0  0
  -39.1276   -7.4545   69.7875 C   0  0  1  0  0  0  0  0  0  0  0  0
  -37.7463   -6.8892   70.1474 C   0  0  0  0  0  0  0  0  0  0  0  0
  -41.2254   -7.8875   70.7758 C   0  0  2  0  0  0  0  0  0  0  0  0
  -41.9572   -7.7366   71.9872 O   0  0  0  0  0  0  0  0  0  0  0  0
  -43.2515   -7.8764   69.4498 O   0  0  0  0  0  0  0  0  0  0  0  0
  -41.8616   -6.3052   67.4361 O   0  0  0  0  0  0  0  0  0  0  0  0
  -38.9239   -7.1644   67.4240 O   0  0  0  0  0  0  0  0  0  0  0  0
  -39.9548   -7.2894   70.9528 O   0  0  0  0  0  0  0  0  0  0  0  0
  -37.3849   -7.2687   71.4790 O   0  0  0  0  0  0  0  0  0  0  0  0
  2  1  1  0
  1 13  1  0
  1 14  2  0
  2  3  1  0
  2 16  1  0
  2 28  1  6
  3  4  1  0
  4  5  1  0
  4 15  1  6
  6  5  1  0
  5 12  1  1
  6  7  1  0
  6 16  1  6
  7  8  1  0
  7 17  1  6
  8  9  1  0
  8 18  1  1
  9 19  1  0
 10 11  1  0
 12 10  1  0
 10 20  2  0
 21 22  1  0
 21 30  1  0
 21 76  1  6
 22 23  1  0
 22 27  1  1
 23 24  1  0
 23 28  1  6
 25 24  1  0
 24 29  1  6
 25 26  1  6
 30 25  1  0
 26 31  1  0
 32 29  1  1
 32 33  1  0
 32 43  1  0
 33 34  1  0
 33 40  1  6
 34 35  1  0
 34 41  1  1
 36 35  1  0
 35 42  1  6
 36 37  1  1
 43 36  1  0
 37 44  1  0
 38 39  1  0
 40 38  1  0
 38 45  2  0
 46 41  1  1
 46 47  1  0
 46 55  1  0
 47 48  1  0
 47 52  1  6
 48 49  1  0
 48 53  1  1
 50 49  1  0
 49 54  1  1
 50 51  1  1
 55 50  1  0
 51 56  1  0
 57 52  1  6
 57 58  1  0
 57 66  1  0
 58 59  1  0
 58 63  1  6
 59 60  1  0
 59 64  1  1
 61 60  1  0
 60 65  1  1
 61 62  1  1
 66 61  1  0
 68 67  1  0
 67 72  1  0
 67 74  1  6
 69 68  1  0
 68 75  1  6
 69 70  1  0
 69 76  1  6
 70 71  1  1
 70 77  1  0
 71 78  1  0
 72 73  1  1
 72 77  1  0
M  END
$$$$
