
     RDKit          3D

 78 83  0  0  0  0  0  0  0  0999 V2000
  -50.9892    6.3689   46.2315 C   0  0  0  0  0  0  0  0  0  0  0  0
  -50.2846    5.0502   46.6615 C   0  0  1  0  0  0  0  0  0  0  0  0
  -50.5389    4.7146   48.1336 C   0  0  0  0  0  0  0  0  0  0  0  0
  -51.8274    3.9447   48.3466 C   0  0  1  0  0  0  0  0  0  0  0  0
  -51.8599    2.7118   47.4225 C   0  0  2  0  0  0  0  0  0  0  0  0
  -51.8037    3.2213   45.9588 C   0  0  2  0  0  0  0  0  0  0  0  0
  -51.7324    2.0803   44.9045 C   0  0  1  0  0  0  0  0  0  0  0  0
  -52.1448    2.5613   43.4862 C   0  0  1  0  0  0  0  0  0  0  0  0
  -51.8903    1.5105   42.3839 C   0  0  0  0  0  0  0  0  0  0  0  0
  -52.9218    0.6042   48.2006 C   0  0  0  0  0  0  0  0  0  0  0  0
  -54.2287   -0.1310   48.3373 C   0  0  0  0  0  0  0  0  0  0  0  0
  -53.0427    1.9002   47.7610 N   0  0  0  0  0  0  0  0  0  0  0  0
  -51.9879    6.1875   45.3424 O   0  0  0  0  0  0  0  0  0  0  0  0
  -50.7205    7.5055   46.6119 O   0  0  0  0  0  0  0  0  0  0  0  0
  -51.9228    3.5072   49.7107 O   0  0  0  0  0  0  0  0  0  0  0  0
  -50.6341    4.0288   45.7401 O   0  0  0  0  0  0  0  0  0  0  0  0
  -50.4124    1.5293   44.8880 O   0  0  0  0  0  0  0  0  0  0  0  0
  -53.5416    2.9025   43.4989 O   0  0  0  0  0  0  0  0  0  0  0  0
  -51.4469    2.0970   41.1640 O   0  0  0  0  0  0  0  0  0  0  0  0
  -51.8396    0.0676   48.4436 O   0  0  0  0  0  0  0  0  0  0  0  0
  -46.8485    7.9145   44.6327 C   0  0  1  0  0  0  0  0  0  0  0  0
  -47.0937    6.8050   45.6893 C   0  0  1  0  0  0  0  0  0  0  0  0
  -48.5613    6.3708   45.5994 C   0  0  2  0  0  0  0  0  0  0  0  0
  -49.4707    7.5843   45.8455 C   0  0  2  0  0  0  0  0  0  0  0  0
  -49.1550    8.5919   44.7273 C   0  0  1  0  0  0  0  0  0  0  0  0
  -50.0464    9.8358   44.7585 C   0  0  0  0  0  0  0  0  0  0  0  0
  -46.2610    5.6593   45.4274 O   0  0  0  0  0  0  0  0  0  0  0  0
  -48.8604    5.3338   46.5617 O   0  0  0  0  0  0  0  0  0  0  0  0
  -49.1403    8.0795   47.1584 O   0  0  0  0  0  0  0  0  0  0  0  0
  -47.7757    9.0013   44.7715 O   0  0  0  0  0  0  0  0  0  0  0  0
  -49.6664   10.8014   43.7854 O   0  0  0  0  0  0  0  0  0  0  0  0
  -50.2687    8.4112   47.9719 C   0  0  1  0  0  0  0  0  0  0  0  0
  -50.1805    7.5985   49.3019 C   0  0  1  0  0  0  0  0  0  0  0  0
  -50.7894    8.4114   50.4829 C   0  0  2  0  0  0  0  0  0  0  0  0
  -51.9341    9.2987   49.9656 C   0  0  2  0  0  0  0  0  0  0  0  0
  -51.4355   10.2781   48.8750 C   0  0  1  0  0  0  0  0  0  0  0  0
  -51.1636   11.6946   49.3944 C   0  0  0  0  0  0  0  0  0  0  0  0
  -50.6495    5.2788   50.0977 C   0  0  0  0  0  0  0  0  0  0  0  0
  -51.9343    4.6962   50.6272 C   0  0  0  0  0  0  0  0  0  0  0  0
  -50.8273    6.2745   49.1670 N   0  0  0  0  0  0  0  0  0  0  0  0
  -49.7704    9.2408   51.0790 O   0  0  0  0  0  0  0  0  0  0  0  0
  -52.6168    9.9163   51.0543 O   0  0  0  0  0  0  0  0  0  0  0  0
  -50.2514    9.8056   48.2255 O   0  0  0  0  0  0  0  0  0  0  0  0
  -50.3653   12.4306   48.4615 O   0  0  0  0  0  0  0  0  0  0  0  0
  -49.5530    4.8988   50.4942 O   0  0  0  0  0  0  0  0  0  0  0  0
  -50.0369    9.5419   52.4546 C   0  0  1  0  0  0  0  0  0  0  0  0
  -48.6845    9.7823   53.1716 C   0  0  1  0  0  0  0  0  0  0  0  0
  -48.9291   10.3851   54.5702 C   0  0  2  0  0  0  0  0  0  0  0  0
  -49.9328   11.5450   54.5356 C   0  0  2  0  0  0  0  0  0  0  0  0
  -51.2142   11.0757   53.8358 C   0  0  1  0  0  0  0  0  0  0  0  0
  -52.2842   12.1657   53.7518 C   0  0  0  0  0  0  0  0  0  0  0  0
  -48.0519    8.4908   53.3304 O   0  0  0  0  0  0  0  0  0  0  0  0
  -47.6988   10.8715   55.1347 O   0  0  0  0  0  0  0  0  0  0  0  0
  -49.2780   12.6378   53.8620 O   0  0  0  0  0  0  0  0  0  0  0  0
  -50.9044   10.6803   52.4920 O   0  0  0  0  0  0  0  0  0  0  0  0
  -52.1046   12.9180   52.5527 O   0  0  0  0  0  0  0  0  0  0  0  0
  -46.8270    8.3528   52.6022 C   0  0  1  0  0  0  0  0  0  0  0  0
  -46.6328    6.8327   52.3998 C   0  0  2  0  0  0  0  0  0  0  0  0
  -45.4395    6.5262   51.4873 C   0  0  1  0  0  0  0  0  0  0  0  0
  -45.1374    7.6861   50.5220 C   0  0  1  0  0  0  0  0  0  0  0  0
  -46.4294    8.4592   50.2139 C   0  0  2  0  0  0  0  0  0  0  0  0
  -46.2233    9.5537   49.1688 C   0  0  0  0  0  0  0  0  0  0  0  0
  -47.8228    6.2639   51.8072 O   0  0  0  0  0  0  0  0  0  0  0  0
  -44.2590    6.2320   52.2562 O   0  0  0  0  0  0  0  0  0  0  0  0
  -44.1539    8.5297   51.1641 O   0  0  0  0  0  0  0  0  0  0  0  0
  -46.9478    9.0982   51.3862 O   0  0  0  0  0  0  0  0  0  0  0  0
  -43.2653   11.1259   43.3711 C   0  0  2  0  0  0  0  0  0  0  0  0
  -44.1290   10.4065   44.4044 C   0  0  2  0  0  0  0  0  0  0  0  0
  -45.0549    9.3338   43.7911 C   0  0  1  0  0  0  0  0  0  0  0  0
  -44.2747    8.4869   42.7616 C   0  0  1  0  0  0  0  0  0  0  0  0
  -45.2035    7.5603   41.9643 C   0  0  0  0  0  0  0  0  0  0  0  0
  -42.6118   10.1242   42.4165 C   0  0  2  0  0  0  0  0  0  0  0  0
  -41.9391   10.8551   41.3973 O   0  0  0  0  0  0  0  0  0  0  0  0
  -42.2384   11.8800   44.0418 O   0  0  0  0  0  0  0  0  0  0  0  0
  -44.9058   11.3991   45.0951 O   0  0  0  0  0  0  0  0  0  0  0  0
  -45.5173    8.4144   44.8017 O   0  0  0  0  0  0  0  0  0  0  0  0
  -43.5891    9.3074   41.7992 O   0  0  0  0  0  0  0  0  0  0  0  0
  -44.4843    6.9317   40.8987 O   0  0  0  0  0  0  0  0  0  0  0  0
  2  1  1  0
  1 13  1  0
  1 14  2  0
  2  3  1  0
  2 16  1  0
  2 28  1  1
  3  4  1  0
  4  5  1  0
  4 15  1  1
  6  5  1  0
  5 12  1  6
  6  7  1  0
  6 16  1  1
  7  8  1  0
  7 17  1  6
  8  9  1  0
  8 18  1  1
  9 19  1  0
 10 11  1  0
 12 10  1  0
 10 20  2  0
 21 22  1  0
 21 30  1  0
 21 76  1  1
 22 23  1  0
 22 27  1  6
 23 24  1  0
 23 28  1  1
 25 24  1  0
 24 29  1  1
 25 26  1  1
 30 25  1  0
 26 31  1  0
 32 29  1  6
 32 33  1  0
 32 43  1  0
 33 34  1  0
 33 40  1  6
 34 35  1  0
 34 41  1  6
 36 35  1  0
 35 42  1  1
 36 37  1  1
 43 36  1  0
 37 44  1  0
 38 39  1  0
 40 38  1  0
 38 45  2  0
 46 41  1  6
 46 47  1  0
 46 55  1  0
 47 48  1  0
 47 52  1  1
 48 49  1  0
 48 53  1  6
 50 49  1  0
 49 54  1  6
 50 51  1  6
 55 50  1  0
 51 56  1  0
 57 52  1  1
 57 58  1  0
 57 66  1  0
 58 59  1  0
 58 63  1  6
 59 60  1  0
 59 64  1  1
 61 60  1  0
 60 65  1  1
 61 62  1  6
 66 61  1  0
 68 67  1  0
 67 72  1  0
 67 74  1  1
 69 68  1  0
 68 75  1  6
 69 70  1  0
 69 76  1  1
 70 71  1  6
 70 77  1  0
 71 78  1  0
 72 73  1  6
 72 77  1  0
M  END
$$$$
