
     RDKit          3D

 78 83  0  0  0  0  0  0  0  0999 V2000
  -43.9445    6.4362   48.5220 C   0  0  0  0  0  0  0  0  0  0  0  0
  -44.8784    5.6783   47.5352 C   0  0  1  0  0  0  0  0  0  0  0  0
  -44.0899    4.8548   46.5132 C   0  0  0  0  0  0  0  0  0  0  0  0
  -43.7251    3.4755   47.0259 C   0  0  1  0  0  0  0  0  0  0  0  0
  -44.9865    2.7599   47.5474 C   0  0  2  0  0  0  0  0  0  0  0  0
  -45.5565    3.6062   48.7154 C   0  0  2  0  0  0  0  0  0  0  0  0
  -46.8947    3.0574   49.2870 C   0  0  1  0  0  0  0  0  0  0  0  0
  -47.6298    4.1009   50.1723 C   0  0  1  0  0  0  0  0  0  0  0  0
  -48.8257    3.5112   50.9508 C   0  0  0  0  0  0  0  0  0  0  0  0
  -45.4847    0.3267   47.6269 C   0  0  0  0  0  0  0  0  0  0  0  0
  -45.2428   -0.9013   48.4640 C   0  0  0  0  0  0  0  0  0  0  0  0
  -44.6324    1.3712   47.8914 N   0  0  0  0  0  0  0  0  0  0  0  0
  -44.4172    6.4920   49.7847 O   0  0  0  0  0  0  0  0  0  0  0  0
  -42.8685    6.9665   48.2577 O   0  0  0  0  0  0  0  0  0  0  0  0
  -43.1479    2.6919   45.9705 O   0  0  0  0  0  0  0  0  0  0  0  0
  -45.8367    4.9502   48.2874 O   0  0  0  0  0  0  0  0  0  0  0  0
  -47.7320    2.6281   48.2097 O   0  0  0  0  0  0  0  0  0  0  0  0
  -46.6910    4.6632   51.1049 O   0  0  0  0  0  0  0  0  0  0  0  0
  -49.5605    4.5065   51.6566 O   0  0  0  0  0  0  0  0  0  0  0  0
  -46.3911    0.3839   46.7941 O   0  0  0  0  0  0  0  0  0  0  0  0
  -48.8671    7.8758   48.2079 C   0  0  1  0  0  0  0  0  0  0  0  0
  -47.9227    7.0146   47.3280 C   0  0  1  0  0  0  0  0  0  0  0  0
  -46.4829    7.4856   47.5639 C   0  0  2  0  0  0  0  0  0  0  0  0
  -46.3670    8.9762   47.2107 C   0  0  2  0  0  0  0  0  0  0  0  0
  -47.3214    9.7187   48.1610 C   0  0  1  0  0  0  0  0  0  0  0  0
  -47.2639   11.2413   48.0151 C   0  0  0  0  0  0  0  0  0  0  0  0
  -48.0145    5.6242   47.6923 O   0  0  0  0  0  0  0  0  0  0  0  0
  -45.5456    6.7218   46.7707 O   0  0  0  0  0  0  0  0  0  0  0  0
  -46.7472    9.0958   45.8253 O   0  0  0  0  0  0  0  0  0  0  0  0
  -48.6803    9.2804   47.9790 O   0  0  0  0  0  0  0  0  0  0  0  0
  -48.5524   11.8417   48.0703 O   0  0  0  0  0  0  0  0  0  0  0  0
  -45.6564    9.0505   44.9016 C   0  0  1  0  0  0  0  0  0  0  0  0
  -46.2324    8.9305   43.4555 C   0  0  1  0  0  0  0  0  0  0  0  0
  -45.3087    9.6593   42.4349 C   0  0  2  0  0  0  0  0  0  0  0  0
  -43.8468    9.5713   42.9041 C   0  0  2  0  0  0  0  0  0  0  0  0
  -43.6672   10.2108   44.3027 C   0  0  1  0  0  0  0  0  0  0  0  0
  -43.1053   11.6367   44.2623 C   0  0  0  0  0  0  0  0  0  0  0  0
  -47.2481    7.1576   42.0204 C   0  0  0  0  0  0  0  0  0  0  0  0
  -47.3574    5.6698   41.8089 C   0  0  0  0  0  0  0  0  0  0  0  0
  -46.4457    7.5159   43.0773 N   0  0  0  0  0  0  0  0  0  0  0  0
  -45.6971   11.0449   42.3304 O   0  0  0  0  0  0  0  0  0  0  0  0
  -42.9699   10.0773   41.9002 O   0  0  0  0  0  0  0  0  0  0  0  0
  -44.8888   10.2331   45.0471 O   0  0  0  0  0  0  0  0  0  0  0  0
  -41.9916   11.7665   45.1523 O   0  0  0  0  0  0  0  0  0  0  0  0
  -47.8151    7.9605   41.2871 O   0  0  0  0  0  0  0  0  0  0  0  0
  -45.8138   11.4856   40.9716 C   0  0  1  0  0  0  0  0  0  0  0  0
  -46.8251   12.6587   40.9252 C   0  0  1  0  0  0  0  0  0  0  0  0
  -46.7696   13.3484   39.5466 C   0  0  2  0  0  0  0  0  0  0  0  0
  -45.3304   13.6306   39.0956 C   0  0  2  0  0  0  0  0  0  0  0  0
  -44.5211   12.3297   39.1652 C   0  0  1  0  0  0  0  0  0  0  0  0
  -43.0650   12.5063   38.7311 C   0  0  0  0  0  0  0  0  0  0  0  0
  -48.1437   12.0906   41.1036 O   0  0  0  0  0  0  0  0  0  0  0  0
  -47.4850   14.5959   39.5747 O   0  0  0  0  0  0  0  0  0  0  0  0
  -44.8238   14.6688   39.9571 O   0  0  0  0  0  0  0  0  0  0  0  0
  -44.5061   11.8512   40.5176 O   0  0  0  0  0  0  0  0  0  0  0  0
  -42.7090   13.8859   38.8082 O   0  0  0  0  0  0  0  0  0  0  0  0
  -48.9304   12.7550   42.0984 C   0  0  1  0  0  0  0  0  0  0  0  0
  -50.3158   12.0704   42.0581 C   0  0  2  0  0  0  0  0  0  0  0  0
  -51.2290   12.5632   43.1868 C   0  0  1  0  0  0  0  0  0  0  0  0
  -50.4274   13.0745   44.3969 C   0  0  1  0  0  0  0  0  0  0  0  0
  -49.0814   12.3377   44.4809 C   0  0  2  0  0  0  0  0  0  0  0  0
  -48.2836   12.7131   45.7281 C   0  0  0  0  0  0  0  0  0  0  0  0
  -50.1561   10.6391   42.1876 O   0  0  0  0  0  0  0  0  0  0  0  0
  -52.1071   13.6067   42.7270 O   0  0  0  0  0  0  0  0  0  0  0  0
  -50.2436   14.4975   44.2160 O   0  0  0  0  0  0  0  0  0  0  0  0
  -48.2511   12.6366   43.3527 O   0  0  0  0  0  0  0  0  0  0  0  0
  -53.7377    8.5906   48.8790 C   0  0  2  0  0  0  0  0  0  0  0  0
  -52.4986    8.4523   47.9976 C   0  0  2  0  0  0  0  0  0  0  0  0
  -51.2292    8.0529   48.7808 C   0  0  1  0  0  0  0  0  0  0  0  0
  -51.5571    6.9198   49.7781 C   0  0  1  0  0  0  0  0  0  0  0  0
  -50.3873    6.6451   50.7337 C   0  0  0  0  0  0  0  0  0  0  0  0
  -53.8671    7.3958   49.8264 C   0  0  2  0  0  0  0  0  0  0  0  0
  -54.9512    7.6473   50.7135 O   0  0  0  0  0  0  0  0  0  0  0  0
  -54.9127    8.6673   48.0506 O   0  0  0  0  0  0  0  0  0  0  0  0
  -52.2954    9.7065   47.3258 O   0  0  0  0  0  0  0  0  0  0  0  0
  -50.2203    7.5292   47.8931 O   0  0  0  0  0  0  0  0  0  0  0  0
  -52.6928    7.2395   50.6011 O   0  0  0  0  0  0  0  0  0  0  0  0
  -50.7786    5.7090   51.7430 O   0  0  0  0  0  0  0  0  0  0  0  0
  2  1  1  0
  1 13  1  0
  1 14  2  0
  2  3  1  0
  2 16  1  0
  2 28  1  6
  3  4  1  0
  4  5  1  0
  4 15  1  6
  6  5  1  0
  5 12  1  1
  6  7  1  0
  6 16  1  6
  7  8  1  0
  7 17  1  6
  8  9  1  0
  8 18  1  1
  9 19  1  0
 10 11  1  0
 12 10  1  0
 10 20  2  0
 21 22  1  0
 21 30  1  0
 21 76  1  6
 22 23  1  0
 22 27  1  1
 23 24  1  0
 23 28  1  6
 25 24  1  0
 24 29  1  6
 25 26  1  6
 30 25  1  0
 26 31  1  0
 32 29  1  1
 32 33  1  0
 32 43  1  0
 33 34  1  0
 33 40  1  6
 34 35  1  0
 34 41  1  1
 36 35  1  0
 35 42  1  6
 36 37  1  6
 43 36  1  0
 37 44  1  0
 38 39  1  0
 40 38  1  0
 38 45  2  0
 46 41  1  1
 46 47  1  0
 46 55  1  0
 47 48  1  0
 47 52  1  6
 48 49  1  0
 48 53  1  1
 50 49  1  0
 49 54  1  1
 50 51  1  1
 55 50  1  0
 51 56  1  0
 57 52  1  6
 57 58  1  0
 57 66  1  0
 58 59  1  0
 58 63  1  1
 59 60  1  0
 59 64  1  6
 61 60  1  0
 60 65  1  6
 61 62  1  1
 66 61  1  0
 68 67  1  0
 67 72  1  0
 67 74  1  6
 69 68  1  0
 68 75  1  1
 69 70  1  0
 69 76  1  6
 70 71  1  1
 70 77  1  0
 71 78  1  0
 72 73  1  1
 72 77  1  0
M  END
$$$$
