
     RDKit          3D

 78 83  0  0  0  0  0  0  0  0999 V2000
  -53.9326  -25.6079   57.8111 C   0  0  0  0  0  0  0  0  0  0  0  0
  -54.3481  -25.7512   56.3187 C   0  0  1  0  0  0  0  0  0  0  0  0
  -54.5800  -24.3924   55.6522 C   0  0  0  0  0  0  0  0  0  0  0  0
  -53.3051  -23.7810   55.1053 C   0  0  1  0  0  0  0  0  0  0  0  0
  -52.5862  -24.7955   54.1947 C   0  0  2  0  0  0  0  0  0  0  0  0
  -52.2309  -26.0326   55.0600 C   0  0  2  0  0  0  0  0  0  0  0  0
  -51.5809  -27.1917   54.2522 C   0  0  1  0  0  0  0  0  0  0  0  0
  -51.6641  -28.5507   54.9999 C   0  0  1  0  0  0  0  0  0  0  0  0
  -51.0552  -29.7263   54.2055 C   0  0  0  0  0  0  0  0  0  0  0  0
  -50.1670  -24.2446   54.0575 C   0  0  0  0  0  0  0  0  0  0  0  0
  -49.9077  -23.4283   55.2959 C   0  0  0  0  0  0  0  0  0  0  0  0
  -51.4401  -24.1253   53.5550 N   0  0  0  0  0  0  0  0  0  0  0  0
  -53.6131  -26.7782   58.4020 O   0  0  0  0  0  0  0  0  0  0  0  0
  -53.8797  -24.5691   58.4645 O   0  0  0  0  0  0  0  0  0  0  0  0
  -53.6086  -22.6035   54.3421 O   0  0  0  0  0  0  0  0  0  0  0  0
  -53.4090  -26.5917   55.6659 O   0  0  0  0  0  0  0  0  0  0  0  0
  -52.2015  -27.2825   52.9666 O   0  0  0  0  0  0  0  0  0  0  0  0
  -50.9830  -28.4304   56.2605 O   0  0  0  0  0  0  0  0  0  0  0  0
  -51.2842  -30.9844   54.8328 O   0  0  0  0  0  0  0  0  0  0  0  0
  -49.3064  -24.9733   53.5608 O   0  0  0  0  0  0  0  0  0  0  0  0
  -58.6228  -24.1005   55.8121 C   0  0  1  0  0  0  0  0  0  0  0  0
  -57.5577  -24.8770   56.6309 C   0  0  1  0  0  0  0  0  0  0  0  0
  -56.6690  -25.6523   55.6513 C   0  0  2  0  0  0  0  0  0  0  0  0
  -57.5366  -26.6083   54.8187 C   0  0  2  0  0  0  0  0  0  0  0  0
  -58.5245  -25.7240   54.0394 C   0  0  1  0  0  0  0  0  0  0  0  0
  -59.4141  -26.5097   53.0729 C   0  0  0  0  0  0  0  0  0  0  0  0
  -56.7285  -23.9679   57.3795 O   0  0  0  0  0  0  0  0  0  0  0  0
  -55.6495  -26.4024   56.3505 O   0  0  0  0  0  0  0  0  0  0  0  0
  -58.1883  -27.4868   55.7577 O   0  0  0  0  0  0  0  0  0  0  0  0
  -59.3586  -24.9648   54.9337 O   0  0  0  0  0  0  0  0  0  0  0  0
  -59.9498  -27.6881   53.6629 O   0  0  0  0  0  0  0  0  0  0  0  0
  -57.3995  -28.6041   56.1752 C   0  0  1  0  0  0  0  0  0  0  0  0
  -58.1007  -29.2818   57.3944 C   0  0  1  0  0  0  0  0  0  0  0  0
  -57.8443  -30.8181   57.3905 C   0  0  2  0  0  0  0  0  0  0  0  0
  -56.4616  -31.1112   56.7843 C   0  0  2  0  0  0  0  0  0  0  0  0
  -56.3585  -30.5726   55.3364 C   0  0  1  0  0  0  0  0  0  0  0  0
  -56.5675  -31.6459   54.2618 C   0  0  0  0  0  0  0  0  0  0  0  0
  -58.5408  -28.5004   59.7246 C   0  0  0  0  0  0  0  0  0  0  0  0
  -57.8662  -28.1458   61.0245 C   0  0  0  0  0  0  0  0  0  0  0  0
  -57.6744  -28.6658   58.6705 N   0  0  0  0  0  0  0  0  0  0  0  0
  -58.8613  -31.4791   56.6093 O   0  0  0  0  0  0  0  0  0  0  0  0
  -56.1354  -32.4914   56.9316 O   0  0  0  0  0  0  0  0  0  0  0  0
  -57.2814  -29.5076   55.0895 O   0  0  0  0  0  0  0  0  0  0  0  0
  -55.4918  -31.6319   53.3174 O   0  0  0  0  0  0  0  0  0  0  0  0
  -59.7556  -28.6465   59.6430 O   0  0  0  0  0  0  0  0  0  0  0  0
  -58.9839  -32.8716   56.9257 C   0  0  1  0  0  0  0  0  0  0  0  0
  -60.4868  -33.1972   57.1162 C   0  0  1  0  0  0  0  0  0  0  0  0
  -60.6920  -34.7249   57.1738 C   0  0  2  0  0  0  0  0  0  0  0  0
  -59.9419  -35.4548   56.0519 C   0  0  2  0  0  0  0  0  0  0  0  0
  -58.4682  -35.0310   56.0786 C   0  0  1  0  0  0  0  0  0  0  0  0
  -57.6303  -35.7089   54.9932 C   0  0  0  0  0  0  0  0  0  0  0  0
  -60.8872  -32.6301   58.3855 O   0  0  0  0  0  0  0  0  0  0  0  0
  -62.0885  -35.0531   57.0688 O   0  0  0  0  0  0  0  0  0  0  0  0
  -60.6131  -35.1207   54.8211 O   0  0  0  0  0  0  0  0  0  0  0  0
  -58.3767  -33.6155   55.8637 O   0  0  0  0  0  0  0  0  0  0  0  0
  -56.5857  -34.8295   54.5791 O   0  0  0  0  0  0  0  0  0  0  0  0
  -59.8511  -32.6331   59.3735 C   0  0  1  0  0  0  0  0  0  0  0  0
  -59.9979  -33.9755   60.1257 C   0  0  2  0  0  0  0  0  0  0  0  0
  -58.8494  -34.2037   61.1154 C   0  0  1  0  0  0  0  0  0  0  0  0
  -57.5724  -33.4506   60.7024 C   0  0  1  0  0  0  0  0  0  0  0  0
  -57.5285  -33.2960   59.1740 C   0  0  2  0  0  0  0  0  0  0  0  0
  -56.2287  -32.6597   58.6856 C   0  0  0  0  0  0  0  0  0  0  0  0
  -60.0112  -35.0668   59.1772 O   0  0  0  0  0  0  0  0  0  0  0  0
  -59.2232  -33.8048   62.4467 O   0  0  0  0  0  0  0  0  0  0  0  0
  -57.6020  -32.1659   61.3656 O   0  0  0  0  0  0  0  0  0  0  0  0
  -58.5978  -32.4682   58.7019 O   0  0  0  0  0  0  0  0  0  0  0  0
  -62.9650  -21.8612   56.4538 C   0  0  2  0  0  0  0  0  0  0  0  0
  -61.9408  -22.9723   56.6719 C   0  0  2  0  0  0  0  0  0  0  0  0
  -60.5340  -22.6241   56.1390 C   0  0  1  0  0  0  0  0  0  0  0  0
  -60.1570  -21.1817   56.5430 C   0  0  1  0  0  0  0  0  0  0  0  0
  -58.8706  -20.7127   55.8485 C   0  0  0  0  0  0  0  0  0  0  0  0
  -62.3929  -20.5047   56.8712 C   0  0  2  0  0  0  0  0  0  0  0  0
  -63.3329  -19.4971   56.5152 O   0  0  0  0  0  0  0  0  0  0  0  0
  -64.1467  -22.1356   57.2293 O   0  0  0  0  0  0  0  0  0  0  0  0
  -62.4368  -24.1590   56.0303 O   0  0  0  0  0  0  0  0  0  0  0  0
  -59.5342  -23.4816   56.7268 O   0  0  0  0  0  0  0  0  0  0  0  0
  -61.1828  -20.2379   56.1872 O   0  0  0  0  0  0  0  0  0  0  0  0
  -58.5394  -19.3827   56.2600 O   0  0  0  0  0  0  0  0  0  0  0  0
  2  1  1  0
  1 13  1  0
  1 14  2  0
  2  3  1  0
  2 16  1  0
  2 28  1  1
  3  4  1  0
  4  5  1  0
  4 15  1  6
  6  5  1  0
  5 12  1  1
  6  7  1  0
  6 16  1  6
  7  8  1  0
  7 17  1  6
  8  9  1  0
  8 18  1  1
  9 19  1  0
 10 11  1  0
 12 10  1  0
 10 20  2  0
 21 22  1  0
 21 30  1  0
 21 76  1  1
 22 23  1  0
 22 27  1  6
 23 24  1  0
 23 28  1  1
 25 24  1  0
 24 29  1  1
 25 26  1  1
 30 25  1  0
 26 31  1  0
 32 29  1  6
 32 33  1  0
 32 43  1  0
 33 34  1  0
 33 40  1  1
 34 35  1  0
 34 41  1  6
 36 35  1  0
 35 42  1  6
 36 37  1  6
 43 36  1  0
 37 44  1  0
 38 39  1  0
 40 38  1  0
 38 45  2  0
 46 41  1  6
 46 47  1  0
 46 55  1  0
 47 48  1  0
 47 52  1  1
 48 49  1  0
 48 53  1  6
 50 49  1  0
 49 54  1  6
 50 51  1  6
 55 50  1  0
 51 56  1  0
 57 52  1  6
 57 58  1  0
 57 66  1  0
 58 59  1  0
 58 63  1  6
 59 60  1  0
 59 64  1  1
 61 60  1  0
 60 65  1  1
 61 62  1  1
 66 61  1  0
 68 67  1  0
 67 72  1  0
 67 74  1  1
 69 68  1  0
 68 75  1  6
 69 70  1  0
 69 76  1  1
 70 71  1  6
 70 77  1  0
 71 78  1  0
 72 73  1  6
 72 77  1  0
M  END
$$$$
