
     RDKit          3D

 31 35  0  0  0  0  0  0  0  0999 V2000
   42.0624   16.8695    9.1203 C   0  0  0  0  0  0  0  0  0  0  0  0
   41.1341   18.7166   11.6239 C   0  0  0  0  0  0  0  0  0  0  0  0
   39.2301   17.6685   12.7324 C   0  0  0  0  0  0  0  0  0  0  0  0
   39.5755   18.2327   13.9402 C   0  0  0  0  0  0  0  0  0  0  0  0
   40.6923   19.0289   13.9731 C   0  0  0  0  0  0  0  0  0  0  0  0
   41.4668   19.2716   12.8303 C   0  0  0  0  0  0  0  0  0  0  0  0
   40.9554   16.7631    4.2157 C   0  0  0  0  0  0  0  0  0  0  0  0
   41.6999   16.6546    5.4647 C   0  0  0  0  0  0  0  0  0  0  0  0
   42.9220   16.3123    5.3610 O   0  0  0  0  0  0  0  0  0  0  0  0
   41.2496   16.8843    6.7823 N   0  0  0  0  0  0  0  0  0  0  0  0
   41.6247   16.0853    7.9305 C   0  0  1  0  0  0  0  0  0  0  0  0
   41.4737   18.1807    9.2578 N   0  0  0  0  0  0  0  0  0  0  0  0
   41.9224   18.9462   10.3863 C   0  0  0  0  0  0  0  0  0  0  0  0
   39.9899   17.9055   11.6077 C   0  0  0  0  0  0  0  0  0  0  0  0
   42.6638   20.1420   12.9313 C   0  0  0  0  0  0  0  0  0  0  0  0
   43.7780   19.3166   13.2248 O   0  0  0  0  0  0  0  0  0  0  0  0
   40.5334   18.6342    8.3020 C   0  0  0  0  0  0  0  0  0  0  0  0
   39.7274   19.7127    8.5803 C   0  0  0  0  0  0  0  0  0  0  0  0
   38.7908   20.1787    7.6544 C   0  0  0  0  0  0  0  0  0  0  0  0
   38.6894   19.5300    6.4462 C   0  0  0  0  0  0  0  0  0  0  0  0
   39.4973   18.4250    6.1272 C   0  0  0  0  0  0  0  0  0  0  0  0
   40.3957   18.0074    7.0567 C   0  0  0  0  0  0  0  0  0  0  0  0
   37.9656   21.3315    8.0074 C   0  0  0  0  0  0  0  0  0  0  0  0
   38.1730   21.9765    9.1428 C   0  0  0  0  0  0  0  0  0  0  0  0
   37.2691   23.1497    9.4110 C   0  0  0  0  0  0  0  0  0  0  0  0
   35.8873   22.8243    9.2193 N   0  0  0  0  0  4  0  0  0  0  0  0
   35.6465   21.9785    8.0876 C   0  0  0  0  0  0  0  0  0  0  0  0
   36.8677   21.8630    7.1730 C   0  0  0  0  0  0  0  0  0  0  0  0
   42.7135   15.0756    7.6527 C   0  0  1  0  0  0  0  0  0  0  0  0
   44.0765   15.6809    7.5610 C   0  0  0  0  0  0  0  0  0  0  0  0
   43.7675   14.9374    8.6765 C   0  0  0  0  0  0  0  0  0  0  0  0
 11  1  1  1
 12  1  1  0
  2  6  1  0
 13  2  1  0
  2 14  2  0
  3  4  2  0
 14  3  1  0
  5  4  1  0
  6  5  2  0
  6 15  1  0
  8  7  1  0
  8  9  2  0
 10  8  1  0
 11 10  1  0
 10 22  1  0
 11 29  1  0
 12 13  1  0
 12 17  1  0
 15 16  1  0
 17 18  2  0
 17 22  1  0
 18 19  1  0
 19 20  2  0
 19 23  1  0
 20 21  1  0
 21 22  2  0
 23 24  2  0
 23 28  1  0
 24 25  1  0
 25 26  1  0
 26 27  1  0
 27 28  1  0
 29 30  1  6
 29 31  1  0
 30 31  2  0
M  CHG  1  26   1
M  END
$$$$
