
     RDKit          3D

 31 35  0  0  0  0  0  0  0  0999 V2000
   41.8848   17.2846    9.0763 C   0  0  0  0  0  0  0  0  0  0  0  0
   41.4386   18.8774   11.5032 C   0  0  0  0  0  0  0  0  0  0  0  0
   42.3979   17.8837   13.5142 C   0  0  0  0  0  0  0  0  0  0  0  0
   41.1534   17.7571   14.0900 C   0  0  0  0  0  0  0  0  0  0  0  0
   40.0716   18.1912   13.3665 C   0  0  0  0  0  0  0  0  0  0  0  0
   40.2070   18.7461   12.0864 C   0  0  0  0  0  0  0  0  0  0  0  0
   41.1667   17.1602    4.1369 C   0  0  0  0  0  0  0  0  0  0  0  0
   41.6571   16.7398    5.4442 C   0  0  0  0  0  0  0  0  0  0  0  0
   42.6792   15.9802    5.4418 O   0  0  0  0  0  0  0  0  0  0  0  0
   41.1538   17.0666    6.7215 N   0  0  0  0  0  0  0  0  0  0  0  0
   41.5153   16.3846    7.9469 C   0  0  1  0  0  0  0  0  0  0  0  0
   41.2481   18.5805    9.0790 N   0  0  0  0  0  0  0  0  0  0  0  0
   41.6314   19.4571   10.1494 C   0  0  0  0  0  0  0  0  0  0  0  0
   42.5335   18.4289   12.2562 C   0  0  0  0  0  0  0  0  0  0  0  0
   38.9979   19.1973   11.3549 C   0  0  0  0  0  0  0  0  0  0  0  0
   39.2078   20.5407   10.9551 O   0  0  0  0  0  0  0  0  0  0  0  0
   40.3270   18.9147    8.0577 C   0  0  0  0  0  0  0  0  0  0  0  0
   39.4762   19.9833    8.2142 C   0  0  0  0  0  0  0  0  0  0  0  0
   38.5572   20.3327    7.2216 C   0  0  0  0  0  0  0  0  0  0  0  0
   38.5198   19.5782    6.0726 C   0  0  0  0  0  0  0  0  0  0  0  0
   39.3747   18.4797    5.8780 C   0  0  0  0  0  0  0  0  0  0  0  0
   40.2538   18.1775    6.8687 C   0  0  0  0  0  0  0  0  0  0  0  0
   37.6822   21.4810    7.4453 C   0  0  0  0  0  0  0  0  0  0  0  0
   37.4667   21.9253    8.6718 C   0  0  0  0  0  0  0  0  0  0  0  0
   36.5503   23.1131    8.7929 C   0  0  0  0  0  0  0  0  0  0  0  0
   35.3317   22.9345    8.0612 N   0  0  0  0  0  4  0  0  0  0  0  0
   35.5111   22.2945    6.7914 C   0  0  0  0  0  0  0  0  0  0  0  0
   36.9817   22.2217    6.3754 C   0  0  0  0  0  0  0  0  0  0  0  0
   42.6462   15.3949    7.7938 C   0  0  1  0  0  0  0  0  0  0  0  0
   43.9649   16.0379    7.5105 C   0  0  0  0  0  0  0  0  0  0  0  0
   43.7568   15.5013    8.7600 C   0  0  0  0  0  0  0  0  0  0  0  0
 11  1  1  1
 12  1  1  0
  2  6  1  0
 13  2  1  0
  2 14  2  0
  3  4  2  0
 14  3  1  0
  5  4  1  0
  6  5  2  0
  6 15  1  0
  8  7  1  0
  8  9  2  0
 10  8  1  0
 11 10  1  0
 10 22  1  0
 11 29  1  0
 12 13  1  0
 12 17  1  0
 15 16  1  0
 17 18  2  0
 17 22  1  0
 18 19  1  0
 19 20  2  0
 19 23  1  0
 20 21  1  0
 21 22  2  0
 23 24  2  0
 23 28  1  0
 24 25  1  0
 25 26  1  0
 26 27  1  0
 27 28  1  0
 29 30  1  6
 29 31  1  0
 30 31  2  0
M  CHG  1  26   1
M  END
$$$$
