
     RDKit          3D

 31 35  0  0  0  0  0  0  0  0999 V2000
   42.0064   17.1977    9.5643 C   0  0  0  0  0  0  0  0  0  0  0  0
   40.9517   19.6957   11.6711 C   0  0  0  0  0  0  0  0  0  0  0  0
   39.4089   21.2586   12.7336 C   0  0  0  0  0  0  0  0  0  0  0  0
   39.0722   20.3308   13.6940 C   0  0  0  0  0  0  0  0  0  0  0  0
   39.6783   19.1016   13.6299 C   0  0  0  0  0  0  0  0  0  0  0  0
   40.6087   18.7822   12.6314 C   0  0  0  0  0  0  0  0  0  0  0  0
   40.6911   16.4091    4.7776 C   0  0  0  0  0  0  0  0  0  0  0  0
   41.5121   16.5839    5.9699 C   0  0  0  0  0  0  0  0  0  0  0  0
   42.7596   16.3713    5.8277 O   0  0  0  0  0  0  0  0  0  0  0  0
   41.1113   16.9647    7.2683 N   0  0  0  0  0  0  0  0  0  0  0  0
   41.5186   16.2927    8.4848 C   0  0  1  0  0  0  0  0  0  0  0  0
   41.4367   18.5243    9.5749 N   0  0  0  0  0  0  0  0  0  0  0  0
   41.9332   19.4039   10.5952 C   0  0  0  0  0  0  0  0  0  0  0  0
   40.3231   20.9469   11.7512 C   0  0  0  0  0  0  0  0  0  0  0  0
   41.2293   17.4349   12.6161 C   0  0  0  0  0  0  0  0  0  0  0  0
   40.1938   16.4811   12.4523 O   0  0  0  0  0  0  0  0  0  0  0  0
   40.4679   18.8825    8.6073 C   0  0  0  0  0  0  0  0  0  0  0  0
   39.6836   19.9966    8.7910 C   0  0  0  0  0  0  0  0  0  0  0  0
   38.7196   20.3704    7.8515 C   0  0  0  0  0  0  0  0  0  0  0  0
   38.5687   19.5933    6.7273 C   0  0  0  0  0  0  0  0  0  0  0  0
   39.3530   18.4482    6.5059 C   0  0  0  0  0  0  0  0  0  0  0  0
   40.2795   18.1235    7.4449 C   0  0  0  0  0  0  0  0  0  0  0  0
   37.9196   21.5670    8.1019 C   0  0  0  0  0  0  0  0  0  0  0  0
   37.8851   22.1046    9.3094 C   0  0  0  0  0  0  0  0  0  0  0  0
   37.0316   23.3350    9.4607 C   0  0  0  0  0  0  0  0  0  0  0  0
   35.7208   23.1564    8.9113 N   0  0  0  0  0  4  0  0  0  0  0  0
   35.7074   22.4224    7.6804 C   0  0  0  0  0  0  0  0  0  0  0  0
   37.1057   22.2595    7.0811 C   0  0  0  0  0  0  0  0  0  0  0  0
   42.5862   15.2429    8.2843 C   0  0  1  0  0  0  0  0  0  0  0  0
   43.9744   15.7952    8.3045 C   0  0  0  0  0  0  0  0  0  0  0  0
   43.5507   15.0581    9.3860 C   0  0  0  0  0  0  0  0  0  0  0  0
 11  1  1  1
 12  1  1  0
  2  6  1  0
 13  2  1  0
  2 14  2  0
  3  4  2  0
 14  3  1  0
  5  4  1  0
  6  5  2  0
  6 15  1  0
  8  7  1  0
  8  9  2  0
 10  8  1  0
 11 10  1  0
 10 22  1  0
 11 29  1  0
 12 13  1  0
 12 17  1  0
 15 16  1  0
 17 18  2  0
 17 22  1  0
 18 19  1  0
 19 20  2  0
 19 23  1  0
 20 21  1  0
 21 22  2  0
 23 24  2  0
 23 28  1  0
 24 25  1  0
 25 26  1  0
 26 27  1  0
 27 28  1  0
 29 30  1  6
 29 31  1  0
 30 31  2  0
M  CHG  1  26   1
M  END
$$$$
