
     RDKit          3D

 31 35  0  0  0  0  0  0  0  0999 V2000
   41.7843   17.0751    9.3632 C   0  0  0  0  0  0  0  0  0  0  0  0
   40.8756   18.9306   11.7894 C   0  0  0  0  0  0  0  0  0  0  0  0
   38.8226   18.3383   12.9667 C   0  0  0  0  0  0  0  0  0  0  0  0
   39.4646   18.3811   14.1843 C   0  0  0  0  0  0  0  0  0  0  0  0
   40.7997   18.6973   14.1876 C   0  0  0  0  0  0  0  0  0  0  0  0
   41.5025   18.9701   13.0058 C   0  0  0  0  0  0  0  0  0  0  0  0
   40.7626   16.7011    4.4535 C   0  0  0  0  0  0  0  0  0  0  0  0
   41.4833   16.6532    5.7201 C   0  0  0  0  0  0  0  0  0  0  0  0
   42.7076   16.3091    5.6560 O   0  0  0  0  0  0  0  0  0  0  0  0
   41.0075   16.9436    7.0167 N   0  0  0  0  0  0  0  0  0  0  0  0
   41.3830   16.2173    8.2121 C   0  0  1  0  0  0  0  0  0  0  0  0
   41.1639   18.3776    9.4204 N   0  0  0  0  0  0  0  0  0  0  0  0
   41.5776   19.2138   10.5115 C   0  0  0  0  0  0  0  0  0  0  0  0
   39.5113   18.6059   11.8039 C   0  0  0  0  0  0  0  0  0  0  0  0
   42.9457   19.3056   13.0759 C   0  0  0  0  0  0  0  0  0  0  0  0
   43.6404   18.1489   13.5099 O   0  0  0  0  0  0  0  0  0  0  0  0
   40.2284   18.7562    8.4280 C   0  0  0  0  0  0  0  0  0  0  0  0
   39.3939   19.8290    8.6353 C   0  0  0  0  0  0  0  0  0  0  0  0
   38.4613   20.2217    7.6721 C   0  0  0  0  0  0  0  0  0  0  0  0
   38.3934   19.5060    6.4999 C   0  0  0  0  0  0  0  0  0  0  0  0
   39.2310   18.4046    6.2534 C   0  0  0  0  0  0  0  0  0  0  0  0
   40.1242   18.0595    7.2170 C   0  0  0  0  0  0  0  0  0  0  0  0
   37.6048   21.3722    7.9497 C   0  0  0  0  0  0  0  0  0  0  0  0
   37.8736   22.1727    8.9671 C   0  0  0  0  0  0  0  0  0  0  0  0
   36.9301   23.3284    9.1659 C   0  0  0  0  0  0  0  0  0  0  0  0
   35.5581   22.9170    9.1501 N   0  0  0  0  0  4  0  0  0  0  0  0
   35.2681   21.9167    8.1655 C   0  0  0  0  0  0  0  0  0  0  0  0
   36.4086   21.7359    7.1617 C   0  0  0  0  0  0  0  0  0  0  0  0
   42.4986   15.2198    8.0055 C   0  0  1  0  0  0  0  0  0  0  0  0
   43.8354   15.8562    7.8044 C   0  0  0  0  0  0  0  0  0  0  0  0
   43.5874   15.2260    9.0018 C   0  0  0  0  0  0  0  0  0  0  0  0
 11  1  1  1
 12  1  1  0
  2  6  1  0
 13  2  1  0
  2 14  2  0
  3  4  2  0
 14  3  1  0
  5  4  1  0
  6  5  2  0
  6 15  1  0
  8  7  1  0
  8  9  2  0
 10  8  1  0
 11 10  1  0
 10 22  1  0
 11 29  1  0
 12 13  1  0
 12 17  1  0
 15 16  1  0
 17 18  2  0
 17 22  1  0
 18 19  1  0
 19 20  2  0
 19 23  1  0
 20 21  1  0
 21 22  2  0
 23 24  2  0
 23 28  1  0
 24 25  1  0
 25 26  1  0
 26 27  1  0
 27 28  1  0
 29 30  1  6
 29 31  1  0
 30 31  2  0
M  CHG  1  26   1
M  END
$$$$
