
     RDKit          3D

 31 35  0  0  0  0  0  0  0  0999 V2000
   41.9732   17.1341    9.4520 C   0  0  0  0  0  0  0  0  0  0  0  0
   41.4604   18.7627   11.9159 C   0  0  0  0  0  0  0  0  0  0  0  0
   42.1833   17.7997   14.0378 C   0  0  0  0  0  0  0  0  0  0  0  0
   40.8854   17.7365   14.4937 C   0  0  0  0  0  0  0  0  0  0  0  0
   39.8955   18.1860   13.6567 C   0  0  0  0  0  0  0  0  0  0  0  0
   40.1744   18.6945   12.3806 C   0  0  0  0  0  0  0  0  0  0  0  0
   40.9763   16.6975    4.5421 C   0  0  0  0  0  0  0  0  0  0  0  0
   41.6921   16.6721    5.8122 C   0  0  0  0  0  0  0  0  0  0  0  0
   42.9156   16.3228    5.7594 O   0  0  0  0  0  0  0  0  0  0  0  0
   41.2126   16.9895    7.1009 N   0  0  0  0  0  0  0  0  0  0  0  0
   41.5624   16.2705    8.3085 C   0  0  1  0  0  0  0  0  0  0  0  0
   41.3811   18.4505    9.4875 N   0  0  0  0  0  0  0  0  0  0  0  0
   41.8044   19.2915   10.5714 C   0  0  0  0  0  0  0  0  0  0  0  0
   42.4599   18.2993   12.7839 C   0  0  0  0  0  0  0  0  0  0  0  0
   39.0595   19.1654   11.5229 C   0  0  0  0  0  0  0  0  0  0  0  0
   38.8285   20.5315   11.8213 O   0  0  0  0  0  0  0  0  0  0  0  0
   40.4622   18.8367    8.4827 C   0  0  0  0  0  0  0  0  0  0  0  0
   39.6499   19.9301    8.6695 C   0  0  0  0  0  0  0  0  0  0  0  0
   38.7338   20.3307    7.6937 C   0  0  0  0  0  0  0  0  0  0  0  0
   38.6596   19.6017    6.5302 C   0  0  0  0  0  0  0  0  0  0  0  0
   39.4747   18.4791    6.3046 C   0  0  0  0  0  0  0  0  0  0  0  0
   40.3524   18.1270    7.2798 C   0  0  0  0  0  0  0  0  0  0  0  0
   37.9007   21.5032    7.9496 C   0  0  0  0  0  0  0  0  0  0  0  0
   38.2625   22.3918    8.8593 C   0  0  0  0  0  0  0  0  0  0  0  0
   37.3350   23.5625    9.0451 C   0  0  0  0  0  0  0  0  0  0  0  0
   35.9710   23.1538    9.2019 N   0  0  0  0  0  4  0  0  0  0  0  0
   35.5927   22.0692    8.3448 C   0  0  0  0  0  0  0  0  0  0  0  0
   36.6302   21.7963    7.2538 C   0  0  0  0  0  0  0  0  0  0  0  0
   42.6574   15.2464    8.1239 C   0  0  1  0  0  0  0  0  0  0  0  0
   43.8699   15.7891    7.4398 C   0  0  0  0  0  0  0  0  0  0  0  0
   43.9458   15.5250    8.7877 C   0  0  0  0  0  0  0  0  0  0  0  0
 11  1  1  1
 12  1  1  0
  2  6  1  0
 13  2  1  0
  2 14  2  0
  3  4  2  0
 14  3  1  0
  5  4  1  0
  6  5  2  0
  6 15  1  0
  8  7  1  0
  8  9  2  0
 10  8  1  0
 11 10  1  0
 10 22  1  0
 11 29  1  0
 12 13  1  0
 12 17  1  0
 15 16  1  0
 17 18  2  0
 17 22  1  0
 18 19  1  0
 19 20  2  0
 19 23  1  0
 20 21  1  0
 21 22  2  0
 23 24  2  0
 23 28  1  0
 24 25  1  0
 25 26  1  0
 26 27  1  0
 27 28  1  0
 29 30  1  6
 29 31  1  0
 30 31  2  0
M  CHG  1  26   1
M  END
$$$$
