
     RDKit          3D

 31 35  0  0  0  0  0  0  0  0999 V2000
   42.2598   17.1433    9.2708 C   0  0  0  0  0  0  0  0  0  0  0  0
   41.3983   18.9566   11.7327 C   0  0  0  0  0  0  0  0  0  0  0  0
   41.5912   17.6994   13.8146 C   0  0  0  0  0  0  0  0  0  0  0  0
   40.4433   18.2752   14.3119 C   0  0  0  0  0  0  0  0  0  0  0  0
   39.7905   19.1812   13.5149 C   0  0  0  0  0  0  0  0  0  0  0  0
   40.2584   19.5218   12.2383 C   0  0  0  0  0  0  0  0  0  0  0  0
   40.9832   16.8924    4.4412 C   0  0  0  0  0  0  0  0  0  0  0  0
   41.6847   16.5786    5.6804 C   0  0  0  0  0  0  0  0  0  0  0  0
   42.7992   15.9753    5.5564 O   0  0  0  0  0  0  0  0  0  0  0  0
   41.2973   16.8591    7.0081 N   0  0  0  0  0  0  0  0  0  0  0  0
   41.8511   16.2131    8.1801 C   0  0  1  0  0  0  0  0  0  0  0  0
   41.5133   18.3763    9.3555 N   0  0  0  0  0  0  0  0  0  0  0  0
   41.9314   19.2845   10.3858 C   0  0  0  0  0  0  0  0  0  0  0  0
   42.0532   18.0327   12.5601 C   0  0  0  0  0  0  0  0  0  0  0  0
   39.5073   20.5092   11.4250 C   0  0  0  0  0  0  0  0  0  0  0  0
   38.6266   21.2051   12.2904 O   0  0  0  0  0  0  0  0  0  0  0  0
   40.4593   18.6254    8.4443 C   0  0  0  0  0  0  0  0  0  0  0  0
   39.5381   19.6126    8.7030 C   0  0  0  0  0  0  0  0  0  0  0  0
   38.4880   19.8770    7.8203 C   0  0  0  0  0  0  0  0  0  0  0  0
   38.3927   19.1217    6.6752 C   0  0  0  0  0  0  0  0  0  0  0  0
   39.3165   18.1050    6.3778 C   0  0  0  0  0  0  0  0  0  0  0  0
   40.3226   17.8840    7.2635 C   0  0  0  0  0  0  0  0  0  0  0  0
   37.5431   20.9415    8.1493 C   0  0  0  0  0  0  0  0  0  0  0  0
   37.0584   21.7199    7.1968 C   0  0  0  0  0  0  0  0  0  0  0  0
   36.0924   22.7850    7.6415 C   0  0  0  0  0  0  0  0  0  0  0  0
   36.5902   23.5383    8.7535 N   0  0  0  0  0  4  0  0  0  0  0  0
   37.2766   22.7419    9.7275 C   0  0  0  0  0  0  0  0  0  0  0  0
   37.0615   21.2422    9.5137 C   0  0  0  0  0  0  0  0  0  0  0  0
   43.0428   15.3297    7.8949 C   0  0  1  0  0  0  0  0  0  0  0  0
   44.1506   16.0369    7.1840 C   0  0  0  0  0  0  0  0  0  0  0  0
   44.3241   15.7237    8.5123 C   0  0  0  0  0  0  0  0  0  0  0  0
 11  1  1  1
 12  1  1  0
  2  6  1  0
 13  2  1  0
  2 14  2  0
  3  4  2  0
 14  3  1  0
  5  4  1  0
  6  5  2  0
  6 15  1  0
  8  7  1  0
  8  9  2  0
 10  8  1  0
 11 10  1  0
 10 22  1  0
 11 29  1  0
 12 13  1  0
 12 17  1  0
 15 16  1  0
 17 18  2  0
 17 22  1  0
 18 19  1  0
 19 20  2  0
 19 23  1  0
 20 21  1  0
 21 22  2  0
 23 24  2  0
 23 28  1  0
 24 25  1  0
 25 26  1  0
 26 27  1  0
 27 28  1  0
 29 30  1  6
 29 31  1  0
 30 31  2  0
M  CHG  1  26   1
M  END
$$$$
