
     RDKit          3D

 31 35  0  0  0  0  0  0  0  0999 V2000
   42.0405   16.9406    9.3354 C   0  0  0  0  0  0  0  0  0  0  0  0
   40.8097   18.7208   11.7862 C   0  0  0  0  0  0  0  0  0  0  0  0
   40.0577   17.2173   13.5543 C   0  0  0  0  0  0  0  0  0  0  0  0
   39.1520   18.1483   14.0116 C   0  0  0  0  0  0  0  0  0  0  0  0
   39.0877   19.3494   13.3517 C   0  0  0  0  0  0  0  0  0  0  0  0
   39.9053   19.6378   12.2503 C   0  0  0  0  0  0  0  0  0  0  0  0
   41.6103   17.4970    4.4328 C   0  0  0  0  0  0  0  0  0  0  0  0
   41.9235   16.7763    5.6611 C   0  0  0  0  0  0  0  0  0  0  0  0
   42.8108   15.8677    5.5674 O   0  0  0  0  0  0  0  0  0  0  0  0
   41.3777   16.9529    6.9505 N   0  0  0  0  0  0  0  0  0  0  0  0
   41.7273   16.1552    8.1077 C   0  0  1  0  0  0  0  0  0  0  0  0
   41.3660   18.2115    9.4554 N   0  0  0  0  0  0  0  0  0  0  0  0
   41.6953   18.9801   10.6224 C   0  0  0  0  0  0  0  0  0  0  0  0
   40.8625   17.4985   12.4719 C   0  0  0  0  0  0  0  0  0  0  0  0
   39.7882   20.9557   11.5795 C   0  0  0  0  0  0  0  0  0  0  0  0
   39.0757   21.8225   12.4455 O   0  0  0  0  0  0  0  0  0  0  0  0
   40.4623   18.6270    8.4485 C   0  0  0  0  0  0  0  0  0  0  0  0
   39.5764   19.6500    8.6914 C   0  0  0  0  0  0  0  0  0  0  0  0
   38.6736   20.0775    7.7147 C   0  0  0  0  0  0  0  0  0  0  0  0
   38.6883   19.4478    6.4924 C   0  0  0  0  0  0  0  0  0  0  0  0
   39.5802   18.3992    6.2086 C   0  0  0  0  0  0  0  0  0  0  0  0
   40.4417   18.0177    7.1872 C   0  0  0  0  0  0  0  0  0  0  0  0
   37.7595   21.1721    8.0321 C   0  0  0  0  0  0  0  0  0  0  0  0
   38.0731   22.0516    8.9682 C   0  0  0  0  0  0  0  0  0  0  0  0
   37.0634   23.1397    9.2174 C   0  0  0  0  0  0  0  0  0  0  0  0
   35.7384   22.6217    9.3850 N   0  0  0  0  0  4  0  0  0  0  0  0
   35.4247   21.5436    8.4943 C   0  0  0  0  0  0  0  0  0  0  0  0
   36.4550   21.3920    7.3733 C   0  0  0  0  0  0  0  0  0  0  0  0
   42.8905   15.2177    7.8846 C   0  0  1  0  0  0  0  0  0  0  0  0
   44.2218   15.8579    8.1095 C   0  0  0  0  0  0  0  0  0  0  0  0
   43.7655   14.9578    9.0444 C   0  0  0  0  0  0  0  0  0  0  0  0
 11  1  1  1
 12  1  1  0
  2  6  1  0
 13  2  1  0
  2 14  2  0
  3  4  2  0
 14  3  1  0
  5  4  1  0
  6  5  2  0
  6 15  1  0
  8  7  1  0
  8  9  2  0
 10  8  1  0
 11 10  1  0
 10 22  1  0
 11 29  1  0
 12 13  1  0
 12 17  1  0
 15 16  1  0
 17 18  2  0
 17 22  1  0
 18 19  1  0
 19 20  2  0
 19 23  1  0
 20 21  1  0
 21 22  2  0
 23 24  2  0
 23 28  1  0
 24 25  1  0
 25 26  1  0
 26 27  1  0
 27 28  1  0
 29 30  1  6
 29 31  1  0
 30 31  2  0
M  CHG  1  26   1
M  END
$$$$
