
     RDKit          3D

 31 35  0  0  0  0  0  0  0  0999 V2000
   39.4296   17.8184    7.2399 C   0  0  0  0  0  0  0  0  0  0  0  0
   38.6787   20.2051    9.4890 C   0  0  0  0  0  0  0  0  0  0  0  0
   39.0096   22.3023   10.6907 C   0  0  0  0  0  0  0  0  0  0  0  0
   38.3872   23.0162    9.6910 C   0  0  0  0  0  0  0  0  0  0  0  0
   37.9204   22.3166    8.6070 C   0  0  0  0  0  0  0  0  0  0  0  0
   38.0619   20.9260    8.5021 C   0  0  0  0  0  0  0  0  0  0  0  0
   43.7030   15.2805    6.4779 C   0  0  0  0  0  0  0  0  0  0  0  0
   42.2837   15.5762    6.6339 C   0  0  0  0  0  0  0  0  0  0  0  0
   41.4844   14.6024    6.4487 O   0  0  0  0  0  0  0  0  0  0  0  0
   41.6703   16.8019    6.9700 N   0  0  0  0  0  0  0  0  0  0  0  0
   40.4965   17.3409    6.3149 C   0  0  1  0  0  0  0  0  0  0  0  0
   39.8828   18.3034    8.5221 N   0  0  0  0  0  0  0  0  0  0  0  0
   38.8502   18.7312    9.4231 C   0  0  0  0  0  0  0  0  0  0  0  0
   39.1499   20.9355   10.5897 C   0  0  0  0  0  0  0  0  0  0  0  0
   37.5358   20.2272    7.3040 C   0  0  0  0  0  0  0  0  0  0  0  0
   37.9827   20.9320    6.1584 O   0  0  0  0  0  0  0  0  0  0  0  0
   41.2661   18.3166    8.8212 C   0  0  0  0  0  0  0  0  0  0  0  0
   41.7405   19.0626    9.8741 C   0  0  0  0  0  0  0  0  0  0  0  0
   43.1013   19.0935   10.1887 C   0  0  0  0  0  0  0  0  0  0  0  0
   43.9664   18.3554    9.4158 C   0  0  0  0  0  0  0  0  0  0  0  0
   43.5171   17.5808    8.3325 C   0  0  0  0  0  0  0  0  0  0  0  0
   42.1853   17.5788    8.0641 C   0  0  0  0  0  0  0  0  0  0  0  0
   43.5434   19.9026   11.3219 C   0  0  0  0  0  0  0  0  0  0  0  0
   42.6708   20.3196   12.2235 C   0  0  0  0  0  0  0  0  0  0  0  0
   43.2291   21.1458   13.3509 C   0  0  0  0  0  0  0  0  0  0  0  0
   44.0690   22.2069   12.8810 N   0  0  0  0  0  4  0  0  0  0  0  0
   44.9101   21.8322   11.7827 C   0  0  0  0  0  0  0  0  0  0  0  0
   44.9414   20.3188   11.5595 C   0  0  0  0  0  0  0  0  0  0  0  0
   39.8358   16.3880    5.3466 C   0  0  1  0  0  0  0  0  0  0  0  0
   40.7570   15.3305    4.8310 C   0  0  0  0  0  0  0  0  0  0  0  0
   39.7912   14.9663    5.7405 C   0  0  0  0  0  0  0  0  0  0  0  0
 11  1  1  1
 12  1  1  0
  2  6  1  0
 13  2  1  0
  2 14  2  0
  3  4  2  0
 14  3  1  0
  5  4  1  0
  6  5  2  0
  6 15  1  0
  8  7  1  0
  8  9  2  0
 10  8  1  0
 11 10  1  0
 10 22  1  0
 11 29  1  0
 12 13  1  0
 12 17  1  0
 15 16  1  0
 17 18  2  0
 17 22  1  0
 18 19  1  0
 19 20  2  0
 19 23  1  0
 20 21  1  0
 21 22  2  0
 23 24  2  0
 23 28  1  0
 24 25  1  0
 25 26  1  0
 26 27  1  0
 27 28  1  0
 29 30  1  6
 29 31  1  0
 30 31  2  0
M  CHG  1  26   1
M  END
$$$$
