
     RDKit          3D

 31 35  0  0  0  0  0  0  0  0999 V2000
   42.0799   17.0446    9.4162 C   0  0  0  0  0  0  0  0  0  0  0  0
   41.0350   18.9776   11.8337 C   0  0  0  0  0  0  0  0  0  0  0  0
   39.0435   19.4738   13.1527 C   0  0  0  0  0  0  0  0  0  0  0  0
   39.4818   18.6732   14.1839 C   0  0  0  0  0  0  0  0  0  0  0  0
   40.6874   18.0376   14.0262 C   0  0  0  0  0  0  0  0  0  0  0  0
   41.4598   18.1846   12.8658 C   0  0  0  0  0  0  0  0  0  0  0  0
   40.8874   16.5197    4.5600 C   0  0  0  0  0  0  0  0  0  0  0  0
   41.6747   16.6313    5.7822 C   0  0  0  0  0  0  0  0  0  0  0  0
   42.9325   16.4786    5.6549 O   0  0  0  0  0  0  0  0  0  0  0  0
   41.2308   16.8930    7.0961 N   0  0  0  0  0  0  0  0  0  0  0  0
   41.6777   16.1768    8.2729 C   0  0  1  0  0  0  0  0  0  0  0  0
   41.4056   18.3184    9.5037 N   0  0  0  0  0  0  0  0  0  0  0  0
   41.8192   19.1655   10.5865 C   0  0  0  0  0  0  0  0  0  0  0  0
   39.8009   19.6199   12.0111 C   0  0  0  0  0  0  0  0  0  0  0  0
   42.7551   17.4702   12.7558 C   0  0  0  0  0  0  0  0  0  0  0  0
   43.7400   18.4128   12.3682 O   0  0  0  0  0  0  0  0  0  0  0  0
   40.4216   18.6615    8.5459 C   0  0  0  0  0  0  0  0  0  0  0  0
   39.5487   19.6954    8.7890 C   0  0  0  0  0  0  0  0  0  0  0  0
   38.5678   20.0526    7.8604 C   0  0  0  0  0  0  0  0  0  0  0  0
   38.4916   19.3416    6.6860 C   0  0  0  0  0  0  0  0  0  0  0  0
   39.3676   18.2793    6.4035 C   0  0  0  0  0  0  0  0  0  0  0  0
   40.3070   17.9680    7.3341 C   0  0  0  0  0  0  0  0  0  0  0  0
   37.6719   21.1629    8.1750 C   0  0  0  0  0  0  0  0  0  0  0  0
   37.5823   21.6161    9.4139 C   0  0  0  0  0  0  0  0  0  0  0  0
   36.6313   22.7624    9.6310 C   0  0  0  0  0  0  0  0  0  0  0  0
   35.3446   22.5165    9.0514 N   0  0  0  0  0  4  0  0  0  0  0  0
   35.4025   21.8656    7.7759 C   0  0  0  0  0  0  0  0  0  0  0  0
   36.8153   21.8537    7.1886 C   0  0  0  0  0  0  0  0  0  0  0  0
   42.8280   15.2304    8.0218 C   0  0  1  0  0  0  0  0  0  0  0  0
   44.1569   15.9112    7.9665 C   0  0  0  0  0  0  0  0  0  0  0  0
   43.8614   15.1481    9.0723 C   0  0  0  0  0  0  0  0  0  0  0  0
 11  1  1  1
 12  1  1  0
  2  6  1  0
 13  2  1  0
  2 14  2  0
  3  4  2  0
 14  3  1  0
  5  4  1  0
  6  5  2  0
  6 15  1  0
  8  7  1  0
  8  9  2  0
 10  8  1  0
 11 10  1  0
 10 22  1  0
 11 29  1  0
 12 13  1  0
 12 17  1  0
 15 16  1  0
 17 18  2  0
 17 22  1  0
 18 19  1  0
 19 20  2  0
 19 23  1  0
 20 21  1  0
 21 22  2  0
 23 24  2  0
 23 28  1  0
 24 25  1  0
 25 26  1  0
 26 27  1  0
 27 28  1  0
 29 30  1  6
 29 31  1  0
 30 31  2  0
M  CHG  1  26   1
M  END
$$$$
