
     RDKit          3D

 31 35  0  0  0  0  0  0  0  0999 V2000
   42.1512   17.1380    9.4009 C   0  0  0  0  0  0  0  0  0  0  0  0
   40.7644   18.8096   11.8504 C   0  0  0  0  0  0  0  0  0  0  0  0
   38.6355   19.1372   12.9960 C   0  0  0  0  0  0  0  0  0  0  0  0
   38.9908   18.2509   13.9883 C   0  0  0  0  0  0  0  0  0  0  0  0
   40.2246   17.6578   13.8981 C   0  0  0  0  0  0  0  0  0  0  0  0
   41.1059   17.9306   12.8428 C   0  0  0  0  0  0  0  0  0  0  0  0
   41.4598   16.8599    4.4346 C   0  0  0  0  0  0  0  0  0  0  0  0
   42.1207   17.0334    5.7228 C   0  0  0  0  0  0  0  0  0  0  0  0
   43.3927   17.0876    5.6976 O   0  0  0  0  0  0  0  0  0  0  0  0
   41.5389   17.1561    7.0027 N   0  0  0  0  0  0  0  0  0  0  0  0
   41.9085   16.3586    8.1537 C   0  0  1  0  0  0  0  0  0  0  0  0
   41.4039   18.3669    9.5274 N   0  0  0  0  0  0  0  0  0  0  0  0
   41.6649   19.1317   10.7141 C   0  0  0  0  0  0  0  0  0  0  0  0
   39.4999   19.4069   11.9577 C   0  0  0  0  0  0  0  0  0  0  0  0
   42.4266   17.2563   12.8019 C   0  0  0  0  0  0  0  0  0  0  0  0
   43.2084   17.7666   13.8683 O   0  0  0  0  0  0  0  0  0  0  0  0
   40.4996   18.7492    8.5080 C   0  0  0  0  0  0  0  0  0  0  0  0
   39.5527   19.7166    8.7485 C   0  0  0  0  0  0  0  0  0  0  0  0
   38.6479   20.1105    7.7595 C   0  0  0  0  0  0  0  0  0  0  0  0
   38.7237   19.5046    6.5275 C   0  0  0  0  0  0  0  0  0  0  0  0
   39.6788   18.5127    6.2458 C   0  0  0  0  0  0  0  0  0  0  0  0
   40.5398   18.1625    7.2365 C   0  0  0  0  0  0  0  0  0  0  0  0
   37.6673   21.1464    8.0751 C   0  0  0  0  0  0  0  0  0  0  0  0
   36.4311   21.0559    7.6146 C   0  0  0  0  0  0  0  0  0  0  0  0
   35.4998   22.1744    7.9977 C   0  0  0  0  0  0  0  0  0  0  0  0
   36.0733   23.4645    7.7554 N   0  0  0  0  0  4  0  0  0  0  0  0
   37.4656   23.5469    8.0855 C   0  0  0  0  0  0  0  0  0  0  0  0
   37.9468   22.3423    8.8970 C   0  0  0  0  0  0  0  0  0  0  0  0
   43.1271   15.4917    7.9405 C   0  0  1  0  0  0  0  0  0  0  0  0
   44.3482   16.2651    7.5620 C   0  0  0  0  0  0  0  0  0  0  0  0
   44.2793   15.7358    8.8299 C   0  0  0  0  0  0  0  0  0  0  0  0
 11  1  1  1
 12  1  1  0
  2  6  1  0
 13  2  1  0
  2 14  2  0
  3  4  2  0
 14  3  1  0
  5  4  1  0
  6  5  2  0
  6 15  1  0
  8  7  1  0
  8  9  2  0
 10  8  1  0
 11 10  1  0
 10 22  1  0
 11 29  1  0
 12 13  1  0
 12 17  1  0
 15 16  1  0
 17 18  2  0
 17 22  1  0
 18 19  1  0
 19 20  2  0
 19 23  1  0
 20 21  1  0
 21 22  2  0
 23 24  2  0
 23 28  1  0
 24 25  1  0
 25 26  1  0
 26 27  1  0
 27 28  1  0
 29 30  1  6
 29 31  1  0
 30 31  2  0
M  CHG  1  26   1
M  END
$$$$
