
     RDKit          3D

 31 35  0  0  0  0  0  0  0  0999 V2000
   42.0072   17.0082    9.5371 C   0  0  0  0  0  0  0  0  0  0  0  0
   40.8911   18.8685   11.9267 C   0  0  0  0  0  0  0  0  0  0  0  0
   38.7553   19.1089   13.0811 C   0  0  0  0  0  0  0  0  0  0  0  0
   39.2337   18.4375   14.1841 C   0  0  0  0  0  0  0  0  0  0  0  0
   40.5308   17.9921   14.1434 C   0  0  0  0  0  0  0  0  0  0  0  0
   41.3550   18.2026   13.0293 C   0  0  0  0  0  0  0  0  0  0  0  0
   41.3099   16.9112    4.5638 C   0  0  0  0  0  0  0  0  0  0  0  0
   41.9050   16.6750    5.8739 C   0  0  0  0  0  0  0  0  0  0  0  0
   43.0765   16.1757    5.8758 O   0  0  0  0  0  0  0  0  0  0  0  0
   41.3586   16.9313    7.1496 N   0  0  0  0  0  0  0  0  0  0  0  0
   41.6733   16.1773    8.3454 C   0  0  1  0  0  0  0  0  0  0  0  0
   41.3773   18.3062    9.5925 N   0  0  0  0  0  0  0  0  0  0  0  0
   41.7271   19.1170   10.7245 C   0  0  0  0  0  0  0  0  0  0  0  0
   39.5635   19.3170   11.9848 C   0  0  0  0  0  0  0  0  0  0  0  0
   42.7490   17.6958   13.0466 C   0  0  0  0  0  0  0  0  0  0  0  0
   42.8865   16.8398   14.1678 O   0  0  0  0  0  0  0  0  0  0  0  0
   40.4945   18.7051    8.5607 C   0  0  0  0  0  0  0  0  0  0  0  0
   39.6441   19.7688    8.7488 C   0  0  0  0  0  0  0  0  0  0  0  0
   38.7624   20.1812    7.7466 C   0  0  0  0  0  0  0  0  0  0  0  0
   38.7617   19.4944    6.5554 C   0  0  0  0  0  0  0  0  0  0  0  0
   39.6175   18.4030    6.3275 C   0  0  0  0  0  0  0  0  0  0  0  0
   40.4595   18.0381    7.3292 C   0  0  0  0  0  0  0  0  0  0  0  0
   37.8858   21.3209    8.0057 C   0  0  0  0  0  0  0  0  0  0  0  0
   38.0475   22.0515    9.0957 C   0  0  0  0  0  0  0  0  0  0  0  0
   37.0928   23.2023    9.2676 C   0  0  0  0  0  0  0  0  0  0  0  0
   35.7287   22.8077    9.0793 N   0  0  0  0  0  4  0  0  0  0  0  0
   35.5416   21.8758    8.0067 C   0  0  0  0  0  0  0  0  0  0  0  0
   36.7820   21.7472    7.1202 C   0  0  0  0  0  0  0  0  0  0  0  0
   42.8040   15.1901    8.1750 C   0  0  1  0  0  0  0  0  0  0  0  0
   44.1461   15.8370    8.0620 C   0  0  0  0  0  0  0  0  0  0  0  0
   43.8376   15.1762    9.2284 C   0  0  0  0  0  0  0  0  0  0  0  0
 11  1  1  1
 12  1  1  0
  2  6  1  0
 13  2  1  0
  2 14  2  0
  3  4  2  0
 14  3  1  0
  5  4  1  0
  6  5  2  0
  6 15  1  0
  8  7  1  0
  8  9  2  0
 10  8  1  0
 11 10  1  0
 10 22  1  0
 11 29  1  0
 12 13  1  0
 12 17  1  0
 15 16  1  0
 17 18  2  0
 17 22  1  0
 18 19  1  0
 19 20  2  0
 19 23  1  0
 20 21  1  0
 21 22  2  0
 23 24  2  0
 23 28  1  0
 24 25  1  0
 25 26  1  0
 26 27  1  0
 27 28  1  0
 29 30  1  6
 29 31  1  0
 30 31  2  0
M  CHG  1  26   1
M  END
$$$$
