
     RDKit          3D

 31 35  0  0  0  0  0  0  0  0999 V2000
   41.8376   17.0846    9.4602 C   0  0  0  0  0  0  0  0  0  0  0  0
   41.1694   18.6813   11.9354 C   0  0  0  0  0  0  0  0  0  0  0  0
   41.7653   17.6649   14.0718 C   0  0  0  0  0  0  0  0  0  0  0  0
   40.4474   17.6416   14.4704 C   0  0  0  0  0  0  0  0  0  0  0  0
   39.5112   18.1371   13.5984 C   0  0  0  0  0  0  0  0  0  0  0  0
   39.8628   18.6525   12.3433 C   0  0  0  0  0  0  0  0  0  0  0  0
   40.9935   16.7460    4.5143 C   0  0  0  0  0  0  0  0  0  0  0  0
   41.6677   16.6876    5.8059 C   0  0  0  0  0  0  0  0  0  0  0  0
   42.8932   16.3420    5.7835 O   0  0  0  0  0  0  0  0  0  0  0  0
   41.1457   16.9693    7.0864 N   0  0  0  0  0  0  0  0  0  0  0  0
   41.4779   16.2347    8.2896 C   0  0  1  0  0  0  0  0  0  0  0  0
   41.2156   18.3869    9.5039 N   0  0  0  0  0  0  0  0  0  0  0  0
   41.5898   19.2155   10.6149 C   0  0  0  0  0  0  0  0  0  0  0  0
   42.1134   18.1711   12.8385 C   0  0  0  0  0  0  0  0  0  0  0  0
   38.8034   19.1741   11.4455 C   0  0  0  0  0  0  0  0  0  0  0  0
   38.4659   20.4791   11.8837 O   0  0  0  0  0  0  0  0  0  0  0  0
   40.3164   18.7724    8.4811 C   0  0  0  0  0  0  0  0  0  0  0  0
   39.4750   19.8440    8.6656 C   0  0  0  0  0  0  0  0  0  0  0  0
   38.5776   20.2435    7.6722 C   0  0  0  0  0  0  0  0  0  0  0  0
   38.5519   19.5359    6.4936 C   0  0  0  0  0  0  0  0  0  0  0  0
   39.3978   18.4359    6.2698 C   0  0  0  0  0  0  0  0  0  0  0  0
   40.2558   18.0841    7.2625 C   0  0  0  0  0  0  0  0  0  0  0  0
   37.7118   21.3924    7.9267 C   0  0  0  0  0  0  0  0  0  0  0  0
   38.1383   22.3951    8.6756 C   0  0  0  0  0  0  0  0  0  0  0  0
   37.1694   23.5294    8.8754 C   0  0  0  0  0  0  0  0  0  0  0  0
   35.8725   23.0705    9.2749 N   0  0  0  0  0  4  0  0  0  0  0  0
   35.4505   21.8783    8.6005 C   0  0  0  0  0  0  0  0  0  0  0  0
   36.3383   21.5391    7.4013 C   0  0  0  0  0  0  0  0  0  0  0  0
   42.6002   15.2385    8.1164 C   0  0  1  0  0  0  0  0  0  0  0  0
   43.9291   15.8763    7.8718 C   0  0  0  0  0  0  0  0  0  0  0  0
   43.6995   15.2994    9.0993 C   0  0  0  0  0  0  0  0  0  0  0  0
 11  1  1  1
 12  1  1  0
  2  6  1  0
 13  2  1  0
  2 14  2  0
  3  4  2  0
 14  3  1  0
  5  4  1  0
  6  5  2  0
  6 15  1  0
  8  7  1  0
  8  9  2  0
 10  8  1  0
 11 10  1  0
 10 22  1  0
 11 29  1  0
 12 13  1  0
 12 17  1  0
 15 16  1  0
 17 18  2  0
 17 22  1  0
 18 19  1  0
 19 20  2  0
 19 23  1  0
 20 21  1  0
 21 22  2  0
 23 24  2  0
 23 28  1  0
 24 25  1  0
 25 26  1  0
 26 27  1  0
 27 28  1  0
 29 30  1  6
 29 31  1  0
 30 31  2  0
M  CHG  1  26   1
M  END
$$$$
