
     RDKit          3D

 31 35  0  0  0  0  0  0  0  0999 V2000
   42.3170   17.4057    9.0475 C   0  0  0  0  0  0  0  0  0  0  0  0
   41.2162   20.0724   10.9838 C   0  0  0  0  0  0  0  0  0  0  0  0
   39.7247   21.7185   11.9926 C   0  0  0  0  0  0  0  0  0  0  0  0
   39.4573   20.8812   13.0527 C   0  0  0  0  0  0  0  0  0  0  0  0
   40.0715   19.6544   13.0638 C   0  0  0  0  0  0  0  0  0  0  0  0
   40.9424   19.2493   12.0430 C   0  0  0  0  0  0  0  0  0  0  0  0
   40.5407   16.2664    4.4850 C   0  0  0  0  0  0  0  0  0  0  0  0
   41.4474   16.3849    5.6208 C   0  0  0  0  0  0  0  0  0  0  0  0
   42.6511   16.0223    5.4175 O   0  0  0  0  0  0  0  0  0  0  0  0
   41.1728   16.8552    6.9227 N   0  0  0  0  0  0  0  0  0  0  0  0
   41.7998   16.3528    8.1277 C   0  0  1  0  0  0  0  0  0  0  0  0
   41.6118   18.6653    9.0179 N   0  0  0  0  0  0  0  0  0  0  0  0
   42.1330   19.6878    9.8804 C   0  0  0  0  0  0  0  0  0  0  0  0
   40.5803   21.3224   10.9879 C   0  0  0  0  0  0  0  0  0  0  0  0
   41.5753   17.9094   12.1125 C   0  0  0  0  0  0  0  0  0  0  0  0
   40.5749   16.9417   11.8450 O   0  0  0  0  0  0  0  0  0  0  0  0
   40.4964   18.8279    8.1619 C   0  0  0  0  0  0  0  0  0  0  0  0
   39.6244   19.8739    8.3508 C   0  0  0  0  0  0  0  0  0  0  0  0
   38.5155   20.0553    7.5205 C   0  0  0  0  0  0  0  0  0  0  0  0
   38.3110   19.1570    6.4999 C   0  0  0  0  0  0  0  0  0  0  0  0
   39.1818   18.0765    6.2766 C   0  0  0  0  0  0  0  0  0  0  0  0
   40.2482   17.9401    7.1070 C   0  0  0  0  0  0  0  0  0  0  0  0
   37.6274   21.1881    7.7701 C   0  0  0  0  0  0  0  0  0  0  0  0
   38.1279   22.3682    8.0943 C   0  0  0  0  0  0  0  0  0  0  0  0
   37.1278   23.4680    8.3298 C   0  0  0  0  0  0  0  0  0  0  0  0
   36.0773   23.0648    9.2163 N   0  0  0  0  0  4  0  0  0  0  0  0
   35.6272   21.7211    9.0022 C   0  0  0  0  0  0  0  0  0  0  0  0
   36.1527   21.1296    7.6926 C   0  0  0  0  0  0  0  0  0  0  0  0
   42.9421   15.3963    7.8784 C   0  0  1  0  0  0  0  0  0  0  0  0
   44.0461   15.5149    8.8782 C   0  0  0  0  0  0  0  0  0  0  0  0
   43.2270   14.4114    8.9400 C   0  0  0  0  0  0  0  0  0  0  0  0
 11  1  1  6
 12  1  1  0
  2  6  1  0
 13  2  1  0
  2 14  2  0
  3  4  2  0
 14  3  1  0
  5  4  1  0
  6  5  2  0
  6 15  1  0
  8  7  1  0
  8  9  2  0
 10  8  1  0
 11 10  1  0
 10 22  1  0
 11 29  1  0
 12 13  1  0
 12 17  1  0
 15 16  1  0
 17 18  2  0
 17 22  1  0
 18 19  1  0
 19 20  2  0
 19 23  1  0
 20 21  1  0
 21 22  2  0
 23 24  2  0
 23 28  1  0
 24 25  1  0
 25 26  1  0
 26 27  1  0
 27 28  1  0
 29 30  1  1
 29 31  1  0
 30 31  2  0
M  CHG  1  26   1
M  END
$$$$
