
     RDKit          3D

 31 35  0  0  0  0  0  0  0  0999 V2000
   42.0566   16.7371    9.2880 C   0  0  0  0  0  0  0  0  0  0  0  0
   41.1006   18.6343   11.8497 C   0  0  0  0  0  0  0  0  0  0  0  0
   39.3586   17.4161   13.0468 C   0  0  0  0  0  0  0  0  0  0  0  0
   39.2942   18.3894   14.0188 C   0  0  0  0  0  0  0  0  0  0  0  0
   40.1316   19.4689   13.8932 C   0  0  0  0  0  0  0  0  0  0  0  0
   41.0271   19.5951   12.8222 C   0  0  0  0  0  0  0  0  0  0  0  0
   41.0251   16.9819    4.3722 C   0  0  0  0  0  0  0  0  0  0  0  0
   41.7563   16.8034    5.6211 C   0  0  0  0  0  0  0  0  0  0  0  0
   42.9761   16.4544    5.5116 O   0  0  0  0  0  0  0  0  0  0  0  0
   41.2953   16.9711    6.9444 N   0  0  0  0  0  0  0  0  0  0  0  0
   41.5915   16.0699    8.0387 C   0  0  1  0  0  0  0  0  0  0  0  0
   41.5554   18.0730    9.5089 N   0  0  0  0  0  0  0  0  0  0  0  0
   42.0315   18.7252   10.6960 C   0  0  0  0  0  0  0  0  0  0  0  0
   40.2380   17.5378   11.9932 C   0  0  0  0  0  0  0  0  0  0  0  0
   41.9070   20.7867   12.7431 C   0  0  0  0  0  0  0  0  0  0  0  0
   41.1282   21.8714   12.2680 O   0  0  0  0  0  0  0  0  0  0  0  0
   40.6681   18.6560    8.5729 C   0  0  0  0  0  0  0  0  0  0  0  0
   39.9315   19.7656    8.9142 C   0  0  0  0  0  0  0  0  0  0  0  0
   39.0480   20.3587    8.0090 C   0  0  0  0  0  0  0  0  0  0  0  0
   38.9280   19.8044    6.7563 C   0  0  0  0  0  0  0  0  0  0  0  0
   39.6655   18.6711    6.3725 C   0  0  0  0  0  0  0  0  0  0  0  0
   40.5141   18.1287    7.2842 C   0  0  0  0  0  0  0  0  0  0  0  0
   38.2958   21.5383    8.4298 C   0  0  0  0  0  0  0  0  0  0  0  0
   38.7339   22.2866    9.4279 C   0  0  0  0  0  0  0  0  0  0  0  0
   37.8857   23.4785    9.7819 C   0  0  0  0  0  0  0  0  0  0  0  0
   36.5031   23.1348    9.9309 N   0  0  0  0  0  4  0  0  0  0  0  0
   36.0377   22.1869    8.9620 C   0  0  0  0  0  0  0  0  0  0  0  0
   37.0298   21.9883    7.8143 C   0  0  0  0  0  0  0  0  0  0  0  0
   42.6148   15.0093    7.7073 C   0  0  1  0  0  0  0  0  0  0  0  0
   44.0195   15.5186    7.7040 C   0  0  0  0  0  0  0  0  0  0  0  0
   43.6217   14.7112    8.7444 C   0  0  0  0  0  0  0  0  0  0  0  0
 11  1  1  1
 12  1  1  0
  2  6  1  0
 13  2  1  0
  2 14  2  0
  3  4  2  0
 14  3  1  0
  5  4  1  0
  6  5  2  0
  6 15  1  0
  8  7  1  0
  8  9  2  0
 10  8  1  0
 11 10  1  0
 10 22  1  0
 11 29  1  0
 12 13  1  0
 12 17  1  0
 15 16  1  0
 17 18  2  0
 17 22  1  0
 18 19  1  0
 19 20  2  0
 19 23  1  0
 20 21  1  0
 21 22  2  0
 23 24  2  0
 23 28  1  0
 24 25  1  0
 25 26  1  0
 26 27  1  0
 27 28  1  0
 29 30  1  6
 29 31  1  0
 30 31  2  0
M  CHG  1  26   1
M  END
$$$$
