
     RDKit          3D

 31 35  0  0  0  0  0  0  0  0999 V2000
   42.0003   17.1920    9.3084 C   0  0  0  0  0  0  0  0  0  0  0  0
   40.7841   19.4998   11.5362 C   0  0  0  0  0  0  0  0  0  0  0  0
   39.3061   20.9754   12.7971 C   0  0  0  0  0  0  0  0  0  0  0  0
   38.8319   19.9215   13.5460 C   0  0  0  0  0  0  0  0  0  0  0  0
   39.3391   18.6747   13.2805 C   0  0  0  0  0  0  0  0  0  0  0  0
   40.3049   18.4605   12.2875 C   0  0  0  0  0  0  0  0  0  0  0  0
   40.8694   16.5816    4.4539 C   0  0  0  0  0  0  0  0  0  0  0  0
   41.6498   16.7966    5.6667 C   0  0  0  0  0  0  0  0  0  0  0  0
   42.9149   16.7289    5.5388 O   0  0  0  0  0  0  0  0  0  0  0  0
   41.1917   17.0771    6.9718 N   0  0  0  0  0  0  0  0  0  0  0  0
   41.5839   16.3423    8.1565 C   0  0  1  0  0  0  0  0  0  0  0  0
   41.3799   18.4936    9.3836 N   0  0  0  0  0  0  0  0  0  0  0  0
   41.8080   19.3221   10.4751 C   0  0  0  0  0  0  0  0  0  0  0  0
   40.2553   20.7673   11.8204 C   0  0  0  0  0  0  0  0  0  0  0  0
   40.8136   17.0877   12.0482 C   0  0  0  0  0  0  0  0  0  0  0  0
   41.7315   16.7777   13.0827 O   0  0  0  0  0  0  0  0  0  0  0  0
   40.4308   18.8788    8.4069 C   0  0  0  0  0  0  0  0  0  0  0  0
   39.5985   19.9493    8.6335 C   0  0  0  0  0  0  0  0  0  0  0  0
   38.6525   20.3485    7.6860 C   0  0  0  0  0  0  0  0  0  0  0  0
   38.5690   19.6413    6.5097 C   0  0  0  0  0  0  0  0  0  0  0  0
   39.4039   18.5424    6.2436 C   0  0  0  0  0  0  0  0  0  0  0  0
   40.3104   18.1909    7.1924 C   0  0  0  0  0  0  0  0  0  0  0  0
   37.7992   21.4963    7.9838 C   0  0  0  0  0  0  0  0  0  0  0  0
   38.2089   22.4306    8.8248 C   0  0  0  0  0  0  0  0  0  0  0  0
   37.2550   23.5704    9.0621 C   0  0  0  0  0  0  0  0  0  0  0  0
   35.9307   23.1152    9.3639 N   0  0  0  0  0  4  0  0  0  0  0  0
   35.5180   21.9865    8.5831 C   0  0  0  0  0  0  0  0  0  0  0  0
   36.4567   21.7146    7.4058 C   0  0  0  0  0  0  0  0  0  0  0  0
   42.6972   15.3473    7.9274 C   0  0  1  0  0  0  0  0  0  0  0  0
   42.7461   14.2629    8.9542 C   0  0  0  0  0  0  0  0  0  0  0  0
   42.2973   13.9461    7.6929 C   0  0  0  0  0  0  0  0  0  0  0  0
 11  1  1  1
 12  1  1  0
  2  6  1  0
 13  2  1  0
  2 14  2  0
  3  4  2  0
 14  3  1  0
  5  4  1  0
  6  5  2  0
  6 15  1  0
  8  7  1  0
  8  9  2  0
 10  8  1  0
 11 10  1  0
 10 22  1  0
 11 29  1  0
 12 13  1  0
 12 17  1  0
 15 16  1  0
 17 18  2  0
 17 22  1  0
 18 19  1  0
 19 20  2  0
 19 23  1  0
 20 21  1  0
 21 22  2  0
 23 24  2  0
 23 28  1  0
 24 25  1  0
 25 26  1  0
 26 27  1  0
 27 28  1  0
 29 30  1  1
 29 31  1  0
 30 31  2  0
M  CHG  1  26   1
M  END
$$$$
