
     RDKit          3D

 46 52  0  0  0  0  0  0  0  0999 V2000
   14.5579  -10.6793   -9.2211 C   0  0  0  0  0  0  0  0  0  0  0  0
   14.1195   -9.6999  -10.0887 C   0  0  0  0  0  0  0  0  0  0  0  0
   14.4130   -9.7351  -11.4342 C   0  0  0  0  0  0  0  0  0  0  0  0
   15.1723  -10.8001  -11.8905 C   0  0  0  0  0  0  0  0  0  0  0  0
   15.6031  -11.7700  -11.0151 C   0  0  0  0  0  0  0  0  0  0  0  0
   15.3139  -11.7412   -9.6718 C   0  0  0  0  0  0  0  0  0  0  0  0
   15.7433  -12.7391   -8.7047 C   0  0  0  0  0  0  0  0  0  0  0  0
   16.4472  -12.4118   -7.5646 C   0  0  0  0  0  0  0  0  0  0  0  0
   16.8251  -13.4140   -6.6820 C   0  0  0  0  0  0  0  0  0  0  0  0
   17.5706  -13.1009   -5.4671 C   0  0  0  0  0  0  0  0  0  0  0  0
   17.8383  -11.8676   -5.2881 O   0  0  0  0  0  0  0  0  0  0  0  0
   17.9743  -14.0959   -4.5416 N   0  0  0  0  0  0  0  0  0  0  0  0
   17.6706  -15.3214   -4.7848 C   0  0  0  0  0  0  0  0  0  0  0  0
   16.9334  -15.8194   -5.9432 C   0  0  0  0  0  0  0  0  0  0  0  0
   16.5313  -14.7455   -6.8834 C   0  0  0  0  0  0  0  0  0  0  0  0
   15.8374  -15.0344   -8.0147 N   0  0  0  0  0  0  0  0  0  0  0  0
   15.4597  -14.0833   -8.8854 C   0  0  0  0  0  0  0  0  0  0  0  0
   14.7085  -14.4158  -10.1121 C   0  0  0  0  0  0  0  0  0  0  0  0
   13.4033  -13.9862  -10.2631 C   0  0  0  0  0  0  0  0  0  0  0  0
   12.6775  -14.2928  -11.4204 C   0  0  0  0  0  0  0  0  0  0  0  0
   15.2740  -15.1437  -11.1124 C   0  0  0  0  0  0  0  0  0  0  0  0
   14.5517  -15.4401  -12.2467 C   0  0  0  0  0  0  0  0  0  0  0  0
   13.2485  -15.0299  -12.4348 C   0  0  0  0  0  0  0  0  0  0  0  0
   12.5618  -15.3868  -13.6759 C   0  0  0  0  0  0  0  0  0  0  0  0
   13.4030  -15.5390  -14.8200 N   0  0  1  0  0  4  0  0  0  0  0  0
   13.4748  -16.9231  -15.1853 C   0  0  0  0  0  0  0  0  0  0  0  0
   12.9360  -17.1782  -16.6129 C   0  0  0  0  0  0  0  0  0  0  0  0
   13.1518  -14.6227  -15.8892 C   0  0  0  0  0  0  0  0  0  0  0  0
   12.0021  -14.9611  -16.7864 C   0  0  0  0  0  0  0  0  0  0  0  0
   11.6625  -16.4349  -16.7085 C   0  0  1  0  0  0  0  0  0  0  0  0
   10.6726  -16.8796  -17.6180 N   0  0  0  0  0  0  0  0  0  0  0  0
   10.6050  -18.0287  -18.3328 C   0  0  0  0  0  0  0  0  0  0  0  0
   11.4290  -19.1295  -18.4364 C   0  0  0  0  0  0  0  0  0  0  0  0
    9.5488  -16.1414  -17.9214 C   0  0  0  0  0  0  0  0  0  0  0  0
    9.2748  -15.0112  -17.4411 O   0  0  0  0  0  0  0  0  0  0  0  0
    8.7845  -16.7840  -18.7955 N   0  0  0  0  0  0  0  0  0  0  0  0
    7.5270  -16.3136  -19.3424 C   0  0  0  0  0  0  0  0  0  0  0  0
    9.4186  -17.9530  -19.0632 C   0  0  0  0  0  0  0  0  0  0  0  0
    9.0348  -18.9753  -19.9093 C   0  0  0  0  0  0  0  0  0  0  0  0
    9.8745  -20.0758  -20.0023 C   0  0  0  0  0  0  0  0  0  0  0  0
   11.0454  -20.1486  -19.2803 C   0  0  0  0  0  0  0  0  0  0  0  0
   11.8645  -21.2944  -19.4108 N   0  0  0  0  0  0  0  0  0  0  0  0
   13.2420  -21.1028  -19.7773 C   0  0  0  0  0  0  0  0  0  0  0  0
   13.7665  -19.9836  -19.5658 O   0  0  0  0  0  0  0  0  0  0  0  0
   14.0166  -22.1867  -20.3839 C   0  0  0  0  0  0  0  0  0  0  0  0
   15.4071  -21.6856  -20.7008 C   0  0  0  0  0  0  0  0  0  0  0  0
  1  2  2  0
  1  6  1  0
  2  3  1  0
  3  4  2  0
  4  5  1  0
  5  6  2  0
  6  7  1  0
  7  8  2  0
  7 17  1  0
  8  9  1  0
  9 10  1  0
  9 15  2  0
 10 11  2  0
 10 12  1  0
 12 13  2  0
 13 14  1  0
 14 15  1  0
 15 16  1  0
 16 17  2  0
 17 18  1  0
 18 19  2  0
 18 21  1  0
 19 20  1  0
 20 23  2  0
 21 22  2  0
 22 23  1  0
 23 24  1  0
 25 24  1  1
 25 26  1  0
 25 28  1  0
 26 27  1  0
 27 30  1  0
 28 29  1  0
 29 30  1  0
 30 31  1  6
 31 32  1  0
 31 34  1  0
 32 33  2  0
 32 38  1  0
 33 41  1  0
 34 35  2  0
 34 36  1  0
 36 37  1  0
 36 38  1  0
 38 39  2  0
 39 40  1  0
 40 41  2  0
 41 42  1  0
 42 43  1  0
 43 44  2  0
 43 45  1  0
 45 46  1  0
M  CHG  1  25   1
M  END
$$$$
