
     RDKit          3D

 46 52  0  0  0  0  0  0  0  0999 V2000
   18.2426  -20.4546  -10.3516 C   0  0  0  0  0  0  0  0  0  0  0  0
   18.3593  -20.8558  -11.6667 C   0  0  0  0  0  0  0  0  0  0  0  0
   17.7805  -22.0182  -12.1270 C   0  0  0  0  0  0  0  0  0  0  0  0
   17.0694  -22.7783  -11.2129 C   0  0  0  0  0  0  0  0  0  0  0  0
   16.9607  -22.3670   -9.9046 C   0  0  0  0  0  0  0  0  0  0  0  0
   17.5353  -21.2087   -9.4387 C   0  0  0  0  0  0  0  0  0  0  0  0
   17.4510  -20.7284   -8.0684 C   0  0  0  0  0  0  0  0  0  0  0  0
   17.9032  -21.4668   -6.9948 C   0  0  0  0  0  0  0  0  0  0  0  0
   17.7938  -20.9478   -5.7123 C   0  0  0  0  0  0  0  0  0  0  0  0
   18.2626  -21.7038   -4.5553 C   0  0  0  0  0  0  0  0  0  0  0  0
   18.7661  -22.8463   -4.8117 O   0  0  0  0  0  0  0  0  0  0  0  0
   18.1683  -21.2082   -3.2306 N   0  0  0  0  0  0  0  0  0  0  0  0
   17.6488  -20.0469   -3.0440 C   0  0  0  0  0  0  0  0  0  0  0  0
   17.1287  -19.1530   -4.0753 C   0  0  0  0  0  0  0  0  0  0  0  0
   17.2478  -19.7110   -5.4440 C   0  0  0  0  0  0  0  0  0  0  0  0
   16.8123  -19.0093   -6.5223 N   0  0  0  0  0  0  0  0  0  0  0  0
   16.9064  -19.4888   -7.7740 C   0  0  0  0  0  0  0  0  0  0  0  0
   16.4248  -18.7135   -8.9344 C   0  0  0  0  0  0  0  0  0  0  0  0
   15.7104  -19.3405   -9.9383 C   0  0  0  0  0  0  0  0  0  0  0  0
   15.2464  -18.6194  -11.0450 C   0  0  0  0  0  0  0  0  0  0  0  0
   16.6681  -17.3798   -9.0444 C   0  0  0  0  0  0  0  0  0  0  0  0
   16.2075  -16.6794  -10.1369 C   0  0  0  0  0  0  0  0  0  0  0  0
   15.4917  -17.2684  -11.1581 C   0  0  0  0  0  0  0  0  0  0  0  0
   15.0374  -16.4432  -12.2771 C   0  0  0  0  0  0  0  0  0  0  0  0
   13.8640  -16.9086  -12.9451 N   0  0  1  0  0  4  0  0  0  0  0  0
   12.7225  -16.7273  -12.0976 C   0  0  0  0  0  0  0  0  0  0  0  0
   11.6702  -15.7857  -12.7298 C   0  0  0  0  0  0  0  0  0  0  0  0
   13.7149  -16.4667  -14.2973 C   0  0  0  0  0  0  0  0  0  0  0  0
   13.1749  -15.0823  -14.4789 C   0  0  0  0  0  0  0  0  0  0  0  0
   12.4205  -14.6232  -13.2485 C   0  0  1  0  0  0  0  0  0  0  0  0
   11.7604  -13.3764  -13.3699 N   0  0  0  0  0  0  0  0  0  0  0  0
   12.1773  -12.1364  -13.0172 C   0  0  0  0  0  0  0  0  0  0  0  0
   13.3330  -11.6543  -12.4398 C   0  0  0  0  0  0  0  0  0  0  0  0
   10.4996  -13.2464  -13.9116 C   0  0  0  0  0  0  0  0  0  0  0  0
    9.7997  -14.1956  -14.3502 O   0  0  0  0  0  0  0  0  0  0  0  0
   10.1148  -11.9764  -13.9106 N   0  0  0  0  0  0  0  0  0  0  0  0
    8.8509  -11.4638  -14.4019 C   0  0  0  0  0  0  0  0  0  0  0  0
   11.1370  -11.2730  -13.3622 C   0  0  0  0  0  0  0  0  0  0  0  0
   11.2331   -9.9135  -13.1367 C   0  0  0  0  0  0  0  0  0  0  0  0
   12.4022   -9.4443  -12.5552 C   0  0  0  0  0  0  0  0  0  0  0  0
   13.4281  -10.2984  -12.2153 C   0  0  0  0  0  0  0  0  0  0  0  0
   14.5994   -9.7674  -11.6264 N   0  0  0  0  0  0  0  0  0  0  0  0
   14.4734   -8.5842  -10.8183 C   0  0  0  0  0  0  0  0  0  0  0  0
   13.3410   -8.0585  -10.7010 O   0  0  0  0  0  0  0  0  0  0  0  0
   15.6380   -8.0043  -10.1472 C   0  0  0  0  0  0  0  0  0  0  0  0
   15.1756   -6.9252   -9.1951 C   0  0  0  0  0  0  0  0  0  0  0  0
  1  2  2  0
  1  6  1  0
  2  3  1  0
  3  4  2  0
  4  5  1  0
  5  6  2  0
  6  7  1  0
  7  8  2  0
  7 17  1  0
  8  9  1  0
  9 10  1  0
  9 15  2  0
 10 11  2  0
 10 12  1  0
 12 13  2  0
 13 14  1  0
 14 15  1  0
 15 16  1  0
 16 17  2  0
 17 18  1  0
 18 19  2  0
 18 21  1  0
 19 20  1  0
 20 23  2  0
 21 22  2  0
 22 23  1  0
 23 24  1  0
 25 24  1  1
 25 26  1  0
 25 28  1  0
 26 27  1  0
 27 30  1  0
 28 29  1  0
 29 30  1  0
 30 31  1  6
 31 32  1  0
 31 34  1  0
 32 33  2  0
 32 38  1  0
 33 41  1  0
 34 35  2  0
 34 36  1  0
 36 37  1  0
 36 38  1  0
 38 39  2  0
 39 40  1  0
 40 41  2  0
 41 42  1  0
 42 43  1  0
 43 44  2  0
 43 45  1  0
 45 46  1  0
M  CHG  1  25   1
M  END
$$$$
