
     RDKit          3D

 46 52  0  0  0  0  0  0  0  0999 V2000
   14.9406  -10.2177   -9.1621 C   0  0  0  0  0  0  0  0  0  0  0  0
   14.7959   -9.2532  -10.1382 C   0  0  0  0  0  0  0  0  0  0  0  0
   15.3538   -9.3951  -11.3898 C   0  0  0  0  0  0  0  0  0  0  0  0
   16.0732  -10.5529  -11.6364 C   0  0  0  0  0  0  0  0  0  0  0  0
   16.2100  -11.5068  -10.6545 C   0  0  0  0  0  0  0  0  0  0  0  0
   15.6560  -11.3718   -9.4040 C   0  0  0  0  0  0  0  0  0  0  0  0
   15.7695  -12.3480   -8.3317 C   0  0  0  0  0  0  0  0  0  0  0  0
   16.1753  -12.0068   -7.0584 C   0  0  0  0  0  0  0  0  0  0  0  0
   16.2605  -12.9884   -6.0810 C   0  0  0  0  0  0  0  0  0  0  0  0
   16.6865  -12.6602   -4.7243 C   0  0  0  0  0  0  0  0  0  0  0  0
   16.9657  -11.4340   -4.5167 O   0  0  0  0  0  0  0  0  0  0  0  0
   16.7860  -13.6340   -3.6990 N   0  0  0  0  0  0  0  0  0  0  0  0
   16.4888  -14.8535   -3.9782 C   0  0  0  0  0  0  0  0  0  0  0  0
   16.0464  -15.3643   -5.2730 C   0  0  0  0  0  0  0  0  0  0  0  0
   15.9564  -14.3123   -6.3143 C   0  0  0  0  0  0  0  0  0  0  0  0
   15.5602  -14.6153   -7.5776 N   0  0  0  0  0  0  0  0  0  0  0  0
   15.4694  -13.6842   -8.5421 C   0  0  0  0  0  0  0  0  0  0  0  0
   15.0398  -14.0320   -9.9111 C   0  0  0  0  0  0  0  0  0  0  0  0
   15.7458  -14.9695  -10.6417 C   0  0  0  0  0  0  0  0  0  0  0  0
   15.3512  -15.3106  -11.9409 C   0  0  0  0  0  0  0  0  0  0  0  0
   13.9523  -13.4468  -10.4814 C   0  0  0  0  0  0  0  0  0  0  0  0
   13.5724  -13.7891  -11.7599 C   0  0  0  0  0  0  0  0  0  0  0  0
   14.2499  -14.7191  -12.5202 C   0  0  0  0  0  0  0  0  0  0  0  0
   13.7689  -15.0239  -13.8676 C   0  0  0  0  0  0  0  0  0  0  0  0
   12.3691  -14.8330  -14.0765 N   0  0  1  0  0  4  0  0  0  0  0  0
   12.1204  -14.5642  -15.4622 C   0  0  0  0  0  0  0  0  0  0  0  0
   11.2009  -15.6283  -16.1069 C   0  0  0  0  0  0  0  0  0  0  0  0
   11.5215  -15.8112  -13.4677 C   0  0  0  0  0  0  0  0  0  0  0  0
   11.3765  -17.1046  -14.2075 C   0  0  0  0  0  0  0  0  0  0  0  0
   11.7250  -16.9396  -15.6720 C   0  0  1  0  0  0  0  0  0  0  0  0
   11.4944  -18.0766  -16.4838 N   0  0  0  0  0  0  0  0  0  0  0  0
   11.0011  -18.1575  -17.7431 C   0  0  0  0  0  0  0  0  0  0  0  0
   10.5630  -17.2165  -18.6509 C   0  0  0  0  0  0  0  0  0  0  0  0
   11.7666  -19.3619  -16.0668 C   0  0  0  0  0  0  0  0  0  0  0  0
   12.2384  -19.6726  -14.9425 O   0  0  0  0  0  0  0  0  0  0  0  0
   11.4630  -20.2393  -17.0150 N   0  0  0  0  0  0  0  0  0  0  0  0
   11.6157  -21.6785  -16.9311 C   0  0  0  0  0  0  0  0  0  0  0  0
   10.9883  -19.5163  -18.0600 C   0  0  0  0  0  0  0  0  0  0  0  0
   10.5381  -19.9584  -19.2889 C   0  0  0  0  0  0  0  0  0  0  0  0
   10.1009  -18.9992  -20.1911 C   0  0  0  0  0  0  0  0  0  0  0  0
   10.1143  -17.6583  -19.8763 C   0  0  0  0  0  0  0  0  0  0  0  0
    9.6590  -16.7218  -20.8336 N   0  0  0  0  0  0  0  0  0  0  0  0
    8.9362  -17.2176  -21.9740 C   0  0  0  0  0  0  0  0  0  0  0  0
    8.8468  -18.4584  -22.1316 O   0  0  0  0  0  0  0  0  0  0  0  0
    8.3186  -16.2978  -22.9308 C   0  0  0  0  0  0  0  0  0  0  0  0
    7.9740  -17.0536  -24.1938 C   0  0  0  0  0  0  0  0  0  0  0  0
  1  2  2  0
  1  6  1  0
  2  3  1  0
  3  4  2  0
  4  5  1  0
  5  6  2  0
  6  7  1  0
  7  8  2  0
  7 17  1  0
  8  9  1  0
  9 10  1  0
  9 15  2  0
 10 11  2  0
 10 12  1  0
 12 13  2  0
 13 14  1  0
 14 15  1  0
 15 16  1  0
 16 17  2  0
 17 18  1  0
 18 19  2  0
 18 21  1  0
 19 20  1  0
 20 23  2  0
 21 22  2  0
 22 23  1  0
 23 24  1  0
 25 24  1  6
 25 26  1  0
 25 28  1  0
 26 27  1  0
 27 30  1  0
 28 29  1  0
 29 30  1  0
 30 31  1  6
 31 32  1  0
 31 34  1  0
 32 33  2  0
 32 38  1  0
 33 41  1  0
 34 35  2  0
 34 36  1  0
 36 37  1  0
 36 38  1  0
 38 39  2  0
 39 40  1  0
 40 41  2  0
 41 42  1  0
 42 43  1  0
 43 44  2  0
 43 45  1  0
 45 46  1  0
M  CHG  1  25   1
M  END
$$$$
