
     RDKit          3D

 46 52  0  0  0  0  0  0  0  0999 V2000
   15.8093  -16.6146   -9.8658 C   0  0  0  0  0  0  0  0  0  0  0  0
   16.0545  -17.7849  -10.5545 C   0  0  0  0  0  0  0  0  0  0  0  0
   17.3209  -18.3175  -10.6568 C   0  0  0  0  0  0  0  0  0  0  0  0
   18.3509  -17.6289  -10.0371 C   0  0  0  0  0  0  0  0  0  0  0  0
   18.0930  -16.4632   -9.3536 C   0  0  0  0  0  0  0  0  0  0  0  0
   16.8323  -15.9264   -9.2474 C   0  0  0  0  0  0  0  0  0  0  0  0
   16.5051  -14.6996   -8.5378 C   0  0  0  0  0  0  0  0  0  0  0  0
   16.9355  -14.4500   -7.2514 C   0  0  0  0  0  0  0  0  0  0  0  0
   16.5883  -13.2571   -6.6328 C   0  0  0  0  0  0  0  0  0  0  0  0
   17.0276  -12.9627   -5.2725 C   0  0  0  0  0  0  0  0  0  0  0  0
   17.7355  -13.8645   -4.7155 O   0  0  0  0  0  0  0  0  0  0  0  0
   16.6938  -11.7564   -4.6071 N   0  0  0  0  0  0  0  0  0  0  0  0
   15.9757  -10.8896   -5.2286 C   0  0  0  0  0  0  0  0  0  0  0  0
   15.4488  -11.0116   -6.5853 C   0  0  0  0  0  0  0  0  0  0  0  0
   15.8223  -12.2872   -7.2427 C   0  0  0  0  0  0  0  0  0  0  0  0
   15.4147  -12.5634   -8.5086 N   0  0  0  0  0  0  0  0  0  0  0  0
   15.7368  -13.7103   -9.1301 C   0  0  0  0  0  0  0  0  0  0  0  0
   15.2824  -13.9955  -10.5055 C   0  0  0  0  0  0  0  0  0  0  0  0
   13.9325  -13.9943  -10.8035 C   0  0  0  0  0  0  0  0  0  0  0  0
   13.4854  -14.2624  -12.1029 C   0  0  0  0  0  0  0  0  0  0  0  0
   16.1686  -14.2631  -11.5021 C   0  0  0  0  0  0  0  0  0  0  0  0
   15.7188  -14.5256  -12.7769 C   0  0  0  0  0  0  0  0  0  0  0  0
   14.3815  -14.5335  -13.1137 C   0  0  0  0  0  0  0  0  0  0  0  0
   13.9971  -14.8169  -14.4962 C   0  0  0  0  0  0  0  0  0  0  0  0
   12.6309  -14.5541  -14.8188 N   0  0  1  0  0  4  0  0  0  0  0  0
   12.5000  -14.3461  -16.2308 C   0  0  0  0  0  0  0  0  0  0  0  0
   11.5633  -15.3866  -16.8892 C   0  0  0  0  0  0  0  0  0  0  0  0
   11.6812  -15.4456  -14.2277 C   0  0  0  0  0  0  0  0  0  0  0  0
   11.5076  -16.7660  -14.9114 C   0  0  0  0  0  0  0  0  0  0  0  0
   11.9703  -16.7015  -16.3520 C   0  0  1  0  0  0  0  0  0  0  0  0
   11.7266  -17.8648  -17.1216 N   0  0  0  0  0  0  0  0  0  0  0  0
   10.6604  -18.1866  -17.8933 C   0  0  0  0  0  0  0  0  0  0  0  0
    9.4818  -17.5388  -18.1979 C   0  0  0  0  0  0  0  0  0  0  0  0
   12.6184  -18.9131  -17.1969 C   0  0  0  0  0  0  0  0  0  0  0  0
   13.7273  -18.9630  -16.6043 O   0  0  0  0  0  0  0  0  0  0  0  0
   12.1511  -19.8740  -17.9840 N   0  0  0  0  0  0  0  0  0  0  0  0
   12.8153  -21.1240  -18.2968 C   0  0  0  0  0  0  0  0  0  0  0  0
   10.9420  -19.4454  -18.4252 C   0  0  0  0  0  0  0  0  0  0  0  0
   10.0515  -20.0786  -19.2704 C   0  0  0  0  0  0  0  0  0  0  0  0
    8.8704  -19.4137  -19.5672 C   0  0  0  0  0  0  0  0  0  0  0  0
    8.5943  -18.1710  -19.0410 C   0  0  0  0  0  0  0  0  0  0  0  0
    7.3759  -17.5362  -19.3773 N   0  0  0  0  0  0  0  0  0  0  0  0
    7.0568  -16.2953  -18.7238 C   0  0  0  0  0  0  0  0  0  0  0  0
    7.6469  -16.0146  -17.6536 O   0  0  0  0  0  0  0  0  0  0  0  0
    6.0663  -15.3792  -19.2918 C   0  0  0  0  0  0  0  0  0  0  0  0
    5.8377  -14.2367  -18.3288 C   0  0  0  0  0  0  0  0  0  0  0  0
  1  2  2  0
  1  6  1  0
  2  3  1  0
  3  4  2  0
  4  5  1  0
  5  6  2  0
  6  7  1  0
  7  8  2  0
  7 17  1  0
  8  9  1  0
  9 10  1  0
  9 15  2  0
 10 11  2  0
 10 12  1  0
 12 13  2  0
 13 14  1  0
 14 15  1  0
 15 16  1  0
 16 17  2  0
 17 18  1  0
 18 19  2  0
 18 21  1  0
 19 20  1  0
 20 23  2  0
 21 22  2  0
 22 23  1  0
 23 24  1  0
 25 24  1  6
 25 26  1  0
 25 28  1  0
 26 27  1  0
 27 30  1  0
 28 29  1  0
 29 30  1  0
 30 31  1  6
 31 32  1  0
 31 34  1  0
 32 33  2  0
 32 38  1  0
 33 41  1  0
 34 35  2  0
 34 36  1  0
 36 37  1  0
 36 38  1  0
 38 39  2  0
 39 40  1  0
 40 41  2  0
 41 42  1  0
 42 43  1  0
 43 44  2  0
 43 45  1  0
 45 46  1  0
M  CHG  1  25   1
M  END
$$$$
