
     RDKit          3D

 46 52  0  0  0  0  0  0  0  0999 V2000
   15.5653  -10.5582  -10.7874 C   0  0  0  0  0  0  0  0  0  0  0  0
   15.8379  -10.0083  -12.0233 C   0  0  0  0  0  0  0  0  0  0  0  0
   16.6139  -10.6616  -12.9554 C   0  0  0  0  0  0  0  0  0  0  0  0
   17.1165  -11.9038  -12.6042 C   0  0  0  0  0  0  0  0  0  0  0  0
   16.8372  -12.4409  -11.3688 C   0  0  0  0  0  0  0  0  0  0  0  0
   16.0638  -11.7948  -10.4343 C   0  0  0  0  0  0  0  0  0  0  0  0
   15.7382  -12.3168   -9.1164 C   0  0  0  0  0  0  0  0  0  0  0  0
   16.4687  -11.9969   -7.9910 C   0  0  0  0  0  0  0  0  0  0  0  0
   16.1021  -12.5290   -6.7628 C   0  0  0  0  0  0  0  0  0  0  0  0
   16.8543  -12.2103   -5.5534 C   0  0  0  0  0  0  0  0  0  0  0  0
   17.8463  -11.4261   -5.7129 O   0  0  0  0  0  0  0  0  0  0  0  0
   16.5114  -12.7337   -4.2814 N   0  0  0  0  0  0  0  0  0  0  0  0
   15.4978  -13.5198   -4.1927 C   0  0  0  0  0  0  0  0  0  0  0  0
   14.6328  -13.9476   -5.2890 C   0  0  0  0  0  0  0  0  0  0  0  0
   15.0276  -13.3765   -6.5994 C   0  0  0  0  0  0  0  0  0  0  0  0
   14.3292  -13.6716   -7.7263 N   0  0  0  0  0  0  0  0  0  0  0  0
   14.6630  -13.1700   -8.9272 C   0  0  0  0  0  0  0  0  0  0  0  0
   13.8943  -13.5041  -10.1427 C   0  0  0  0  0  0  0  0  0  0  0  0
   13.0141  -12.5838  -10.6805 C   0  0  0  0  0  0  0  0  0  0  0  0
   12.2781  -12.8851  -11.8327 C   0  0  0  0  0  0  0  0  0  0  0  0
   14.0307  -14.7101  -10.7567 C   0  0  0  0  0  0  0  0  0  0  0  0
   13.3022  -14.9969  -11.8895 C   0  0  0  0  0  0  0  0  0  0  0  0
   12.4149  -14.1060  -12.4562 C   0  0  0  0  0  0  0  0  0  0  0  0
   11.6888  -14.4957  -13.6647 C   0  0  0  0  0  0  0  0  0  0  0  0
   10.8927  -15.6756  -13.5478 N   0  0  1  0  0  4  0  0  0  0  0  0
    9.5122  -15.3146  -13.4133 C   0  0  0  0  0  0  0  0  0  0  0  0
    8.6470  -15.8781  -14.5655 C   0  0  0  0  0  0  0  0  0  0  0  0
   11.1800  -16.7034  -14.5002 C   0  0  0  0  0  0  0  0  0  0  0  0
   10.5774  -16.5253  -15.8590 C   0  0  0  0  0  0  0  0  0  0  0  0
    9.3872  -15.5899  -15.8115 C   0  0  1  0  0  0  0  0  0  0  0  0
    8.6684  -15.4585  -17.0244 N   0  0  0  0  0  0  0  0  0  0  0  0
    9.1085  -15.5196  -18.3044 C   0  0  0  0  0  0  0  0  0  0  0  0
   10.3500  -15.7191  -18.8705 C   0  0  0  0  0  0  0  0  0  0  0  0
    7.3090  -15.2346  -17.0686 C   0  0  0  0  0  0  0  0  0  0  0  0
    6.5620  -15.1204  -16.0625 O   0  0  0  0  0  0  0  0  0  0  0  0
    6.8851  -15.1540  -18.3235 N   0  0  0  0  0  0  0  0  0  0  0  0
    5.5196  -14.9256  -18.7535 C   0  0  0  0  0  0  0  0  0  0  0  0
    7.9812  -15.3275  -19.1038 C   0  0  0  0  0  0  0  0  0  0  0  0
    8.0744  -15.3316  -20.4820 C   0  0  0  0  0  0  0  0  0  0  0  0
    9.3303  -15.5338  -21.0360 C   0  0  0  0  0  0  0  0  0  0  0  0
   10.4420  -15.7232  -20.2450 C   0  0  0  0  0  0  0  0  0  0  0  0
   11.6988  -15.9267  -20.8613 N   0  0  0  0  0  0  0  0  0  0  0  0
   11.7442  -16.7241  -22.0575 C   0  0  0  0  0  0  0  0  0  0  0  0
   10.6796  -17.2412  -22.4717 O   0  0  0  0  0  0  0  0  0  0  0  0
   13.0024  -16.9296  -22.7771 C   0  0  0  0  0  0  0  0  0  0  0  0
   13.1641  -18.4010  -23.0832 C   0  0  0  0  0  0  0  0  0  0  0  0
  1  2  2  0
  1  6  1  0
  2  3  1  0
  3  4  2  0
  4  5  1  0
  5  6  2  0
  6  7  1  0
  7  8  2  0
  7 17  1  0
  8  9  1  0
  9 10  1  0
  9 15  2  0
 10 11  2  0
 10 12  1  0
 12 13  2  0
 13 14  1  0
 14 15  1  0
 15 16  1  0
 16 17  2  0
 17 18  1  0
 18 19  2  0
 18 21  1  0
 19 20  1  0
 20 23  2  0
 21 22  2  0
 22 23  1  0
 23 24  1  0
 25 24  1  6
 25 26  1  0
 25 28  1  0
 26 27  1  0
 27 30  1  0
 28 29  1  0
 29 30  1  0
 30 31  1  6
 31 32  1  0
 31 34  1  0
 32 33  2  0
 32 38  1  0
 33 41  1  0
 34 35  2  0
 34 36  1  0
 36 37  1  0
 36 38  1  0
 38 39  2  0
 39 40  1  0
 40 41  2  0
 41 42  1  0
 42 43  1  0
 43 44  2  0
 43 45  1  0
 45 46  1  0
M  CHG  1  25   1
M  END
$$$$
