
     RDKit          3D

 46 52  0  0  0  0  0  0  0  0999 V2000
   14.3015  -10.7414   -9.5420 C   0  0  0  0  0  0  0  0  0  0  0  0
   14.0718  -10.0933  -10.7384 C   0  0  0  0  0  0  0  0  0  0  0  0
   14.6714  -10.4966  -11.9113 C   0  0  0  0  0  0  0  0  0  0  0  0
   15.5225  -11.5876  -11.8465 C   0  0  0  0  0  0  0  0  0  0  0  0
   15.7430  -12.2249  -10.6474 C   0  0  0  0  0  0  0  0  0  0  0  0
   15.1482  -11.8281   -9.4737 C   0  0  0  0  0  0  0  0  0  0  0  0
   15.3460  -12.4655   -8.1813 C   0  0  0  0  0  0  0  0  0  0  0  0
   15.6416  -11.7504   -7.0395 C   0  0  0  0  0  0  0  0  0  0  0  0
   15.8165  -12.4217   -5.8375 C   0  0  0  0  0  0  0  0  0  0  0  0
   16.1300  -11.6944   -4.6117 C   0  0  0  0  0  0  0  0  0  0  0  0
   16.2272  -10.4292   -4.7320 O   0  0  0  0  0  0  0  0  0  0  0  0
   16.3159  -12.3438   -3.3654 N   0  0  0  0  0  0  0  0  0  0  0  0
   16.2033  -13.6237   -3.3160 C   0  0  0  0  0  0  0  0  0  0  0  0
   15.8959  -14.5116   -4.4342 C   0  0  0  0  0  0  0  0  0  0  0  0
   15.7095  -13.7905   -5.7164 C   0  0  0  0  0  0  0  0  0  0  0  0
   15.4176  -14.4651   -6.8585 N   0  0  0  0  0  0  0  0  0  0  0  0
   15.2435  -13.8395   -8.0349 C   0  0  0  0  0  0  0  0  0  0  0  0
   14.9297  -14.5891   -9.2674 C   0  0  0  0  0  0  0  0  0  0  0  0
   15.8253  -15.5205   -9.7589 C   0  0  0  0  0  0  0  0  0  0  0  0
   15.5424  -16.2399  -10.9262 C   0  0  0  0  0  0  0  0  0  0  0  0
   13.7664  -14.3856   -9.9424 C   0  0  0  0  0  0  0  0  0  0  0  0
   13.4975  -15.0982  -11.0896 C   0  0  0  0  0  0  0  0  0  0  0  0
   14.3646  -16.0352  -11.6112 C   0  0  0  0  0  0  0  0  0  0  0  0
   13.9914  -16.7487  -12.8323 C   0  0  0  0  0  0  0  0  0  0  0  0
   13.8333  -15.9338  -13.9943 N   0  0  1  0  0  4  0  0  0  0  0  0
   14.8503  -16.2558  -14.9515 C   0  0  0  0  0  0  0  0  0  0  0  0
   14.2557  -16.7737  -16.2826 C   0  0  0  0  0  0  0  0  0  0  0  0
   12.4995  -15.8490  -14.5043 C   0  0  0  0  0  0  0  0  0  0  0  0
   12.0447  -17.0009  -15.3455 C   0  0  0  0  0  0  0  0  0  0  0  0
   13.2238  -17.7642  -15.9118 C   0  0  1  0  0  0  0  0  0  0  0  0
   12.8983  -18.7944  -16.8270 N   0  0  0  0  0  0  0  0  0  0  0  0
   13.1503  -20.1241  -16.7617 C   0  0  0  0  0  0  0  0  0  0  0  0
   13.7832  -20.9236  -15.8334 C   0  0  0  0  0  0  0  0  0  0  0  0
   12.2218  -18.5628  -18.0054 C   0  0  0  0  0  0  0  0  0  0  0  0
   11.8240  -17.4367  -18.4015 O   0  0  0  0  0  0  0  0  0  0  0  0
   12.0423  -19.6938  -18.6760 N   0  0  0  0  0  0  0  0  0  0  0  0
   11.3725  -19.8350  -19.9540 C   0  0  0  0  0  0  0  0  0  0  0  0
   12.6084  -20.6715  -17.9250 C   0  0  0  0  0  0  0  0  0  0  0  0
   12.6891  -22.0266  -18.1811 C   0  0  0  0  0  0  0  0  0  0  0  0
   13.3288  -22.8173  -17.2374 C   0  0  0  0  0  0  0  0  0  0  0  0
   13.8632  -22.2749  -16.0895 C   0  0  0  0  0  0  0  0  0  0  0  0
   14.5035  -23.1264  -15.1592 N   0  0  0  0  0  0  0  0  0  0  0  0
   15.2354  -22.5200  -14.0797 C   0  0  0  0  0  0  0  0  0  0  0  0
   15.3835  -21.2748  -14.0833 O   0  0  0  0  0  0  0  0  0  0  0  0
   15.7962  -23.3346  -13.0003 C   0  0  0  0  0  0  0  0  0  0  0  0
   17.3040  -23.2334  -13.0346 C   0  0  0  0  0  0  0  0  0  0  0  0
  1  2  2  0
  1  6  1  0
  2  3  1  0
  3  4  2  0
  4  5  1  0
  5  6  2  0
  6  7  1  0
  7  8  2  0
  7 17  1  0
  8  9  1  0
  9 10  1  0
  9 15  2  0
 10 11  2  0
 10 12  1  0
 12 13  2  0
 13 14  1  0
 14 15  1  0
 15 16  1  0
 16 17  2  0
 17 18  1  0
 18 19  2  0
 18 21  1  0
 19 20  1  0
 20 23  2  0
 21 22  2  0
 22 23  1  0
 23 24  1  0
 25 24  1  1
 25 26  1  0
 25 28  1  0
 26 27  1  0
 27 30  1  0
 28 29  1  0
 29 30  1  0
 30 31  1  6
 31 32  1  0
 31 34  1  0
 32 33  2  0
 32 38  1  0
 33 41  1  0
 34 35  2  0
 34 36  1  0
 36 37  1  0
 36 38  1  0
 38 39  2  0
 39 40  1  0
 40 41  2  0
 41 42  1  0
 42 43  1  0
 43 44  2  0
 43 45  1  0
 45 46  1  0
M  CHG  1  25   1
M  END
$$$$
