
     RDKit          3D

 46 52  0  0  0  0  0  0  0  0999 V2000
   15.3150  -16.2938  -10.0190 C   0  0  0  0  0  0  0  0  0  0  0  0
   15.5346  -17.2851  -10.9534 C   0  0  0  0  0  0  0  0  0  0  0  0
   16.7649  -17.4670  -11.5460 C   0  0  0  0  0  0  0  0  0  0  0  0
   17.7850  -16.6100  -11.1666 C   0  0  0  0  0  0  0  0  0  0  0  0
   17.5529  -15.6257  -10.2338 C   0  0  0  0  0  0  0  0  0  0  0  0
   16.3283  -15.4387   -9.6386 C   0  0  0  0  0  0  0  0  0  0  0  0
   16.0296  -14.4160   -8.6485 C   0  0  0  0  0  0  0  0  0  0  0  0
   16.6781  -14.3490   -7.4330 C   0  0  0  0  0  0  0  0  0  0  0  0
   16.3453  -13.3455   -6.5340 C   0  0  0  0  0  0  0  0  0  0  0  0
   17.0127  -13.2470   -5.2399 C   0  0  0  0  0  0  0  0  0  0  0  0
   17.9003  -14.1323   -5.0097 O   0  0  0  0  0  0  0  0  0  0  0  0
   16.7008  -12.2371   -4.2953 N   0  0  0  0  0  0  0  0  0  0  0  0
   15.7940  -11.3755   -4.5929 C   0  0  0  0  0  0  0  0  0  0  0  0
   15.0250  -11.3183   -5.8334 C   0  0  0  0  0  0  0  0  0  0  0  0
   15.3839  -12.3919   -6.7912 C   0  0  0  0  0  0  0  0  0  0  0  0
   14.7642  -12.4855   -7.9962 N   0  0  0  0  0  0  0  0  0  0  0  0
   15.0675  -13.4471   -8.8843 C   0  0  0  0  0  0  0  0  0  0  0  0
   14.3815  -13.5358  -10.1886 C   0  0  0  0  0  0  0  0  0  0  0  0
   13.0447  -13.8834  -10.2461 C   0  0  0  0  0  0  0  0  0  0  0  0
   12.3796  -13.9715  -11.4749 C   0  0  0  0  0  0  0  0  0  0  0  0
   15.0383  -13.2810  -11.3521 C   0  0  0  0  0  0  0  0  0  0  0  0
   14.3752  -13.3705  -12.5557 C   0  0  0  0  0  0  0  0  0  0  0  0
   13.0431  -13.7136  -12.6545 C   0  0  0  0  0  0  0  0  0  0  0  0
   12.4205  -13.7775  -13.9765 C   0  0  0  0  0  0  0  0  0  0  0  0
   13.0412  -14.6686  -14.9040 N   0  0  1  0  0  4  0  0  0  0  0  0
   12.5386  -15.9964  -14.7075 C   0  0  0  0  0  0  0  0  0  0  0  0
   11.8303  -16.5446  -15.9689 C   0  0  0  0  0  0  0  0  0  0  0  0
   13.0820  -14.2099  -16.2582 C   0  0  0  0  0  0  0  0  0  0  0  0
   11.8233  -14.3879  -17.0490 C   0  0  0  0  0  0  0  0  0  0  0  0
   10.9438  -15.4619  -16.4435 C   0  0  1  0  0  0  0  0  0  0  0  0
    9.7893  -15.7959  -17.1922 N   0  0  0  0  0  0  0  0  0  0  0  0
    9.5945  -16.7952  -18.0862 C   0  0  0  0  0  0  0  0  0  0  0  0
   10.4024  -17.8008  -18.5736 C   0  0  0  0  0  0  0  0  0  0  0  0
    8.6084  -15.0907  -17.1018 C   0  0  0  0  0  0  0  0  0  0  0  0
    8.4190  -14.0893  -16.3640 O   0  0  0  0  0  0  0  0  0  0  0  0
    7.6866  -15.6103  -17.9027 N   0  0  0  0  0  0  0  0  0  0  0  0
    6.3285  -15.1317  -18.0696 C   0  0  0  0  0  0  0  0  0  0  0  0
    8.2750  -16.6651  -18.5206 C   0  0  0  0  0  0  0  0  0  0  0  0
    7.7398  -17.5369  -19.4489 C   0  0  0  0  0  0  0  0  0  0  0  0
    8.5654  -18.5431  -19.9294 C   0  0  0  0  0  0  0  0  0  0  0  0
    9.8679  -18.6699  -19.4993 C   0  0  0  0  0  0  0  0  0  0  0  0
   10.6662  -19.7149  -20.0202 N   0  0  0  0  0  0  0  0  0  0  0  0
   10.1888  -20.4160  -21.1817 C   0  0  0  0  0  0  0  0  0  0  0  0
    9.0664  -20.1063  -21.6473 O   0  0  0  0  0  0  0  0  0  0  0  0
   10.9915  -21.4678  -21.8080 C   0  0  0  0  0  0  0  0  0  0  0  0
   10.9075  -21.3275  -23.3107 C   0  0  0  0  0  0  0  0  0  0  0  0
  1  2  2  0
  1  6  1  0
  2  3  1  0
  3  4  2  0
  4  5  1  0
  5  6  2  0
  6  7  1  0
  7  8  2  0
  7 17  1  0
  8  9  1  0
  9 10  1  0
  9 15  2  0
 10 11  2  0
 10 12  1  0
 12 13  2  0
 13 14  1  0
 14 15  1  0
 15 16  1  0
 16 17  2  0
 17 18  1  0
 18 19  2  0
 18 21  1  0
 19 20  1  0
 20 23  2  0
 21 22  2  0
 22 23  1  0
 23 24  1  0
 25 24  1  1
 25 26  1  0
 25 28  1  0
 26 27  1  0
 27 30  1  0
 28 29  1  0
 29 30  1  0
 30 31  1  6
 31 32  1  0
 31 34  1  0
 32 33  2  0
 32 38  1  0
 33 41  1  0
 34 35  2  0
 34 36  1  0
 36 37  1  0
 36 38  1  0
 38 39  2  0
 39 40  1  0
 40 41  2  0
 41 42  1  0
 42 43  1  0
 43 44  2  0
 43 45  1  0
 45 46  1  0
M  CHG  1  25   1
M  END
$$$$
