
     RDKit          3D

 46 52  0  0  0  0  0  0  0  0999 V2000
   13.3707  -15.9776   -9.1312 C   0  0  0  0  0  0  0  0  0  0  0  0
   12.9883  -17.2966   -9.2653 C   0  0  0  0  0  0  0  0  0  0  0  0
   13.9085  -18.3213   -9.2996 C   0  0  0  0  0  0  0  0  0  0  0  0
   15.2461  -17.9768   -9.1934 C   0  0  0  0  0  0  0  0  0  0  0  0
   15.6140  -16.6579   -9.0601 C   0  0  0  0  0  0  0  0  0  0  0  0
   14.7015  -15.6308   -9.0251 C   0  0  0  0  0  0  0  0  0  0  0  0
   15.0360  -14.2222   -8.8857 C   0  0  0  0  0  0  0  0  0  0  0  0
   15.8418  -13.7485   -7.8714 C   0  0  0  0  0  0  0  0  0  0  0  0
   16.1227  -12.3914   -7.7976 C   0  0  0  0  0  0  0  0  0  0  0  0
   16.9717  -11.8584   -6.7369 C   0  0  0  0  0  0  0  0  0  0  0  0
   17.4209  -12.7163   -5.9081 O   0  0  0  0  0  0  0  0  0  0  0  0
   17.2815  -10.4795   -6.6278 N   0  0  0  0  0  0  0  0  0  0  0  0
   16.7941   -9.6688   -7.4988 C   0  0  0  0  0  0  0  0  0  0  0  0
   15.9302  -10.0197   -8.6230 C   0  0  0  0  0  0  0  0  0  0  0  0
   15.6327  -11.4705   -8.6984 C   0  0  0  0  0  0  0  0  0  0  0  0
   14.8429  -11.9689   -9.6846 N   0  0  0  0  0  0  0  0  0  0  0  0
   14.5555  -13.2780   -9.7786 C   0  0  0  0  0  0  0  0  0  0  0  0
   13.6924  -13.8021  -10.8557 C   0  0  0  0  0  0  0  0  0  0  0  0
   12.4192  -13.2935  -11.0327 C   0  0  0  0  0  0  0  0  0  0  0  0
   11.5886  -13.7794  -12.0496 C   0  0  0  0  0  0  0  0  0  0  0  0
   14.1221  -14.7860  -11.6909 C   0  0  0  0  0  0  0  0  0  0  0  0
   13.2974  -15.2573  -12.6879 C   0  0  0  0  0  0  0  0  0  0  0  0
   12.0220  -14.7758  -12.8966 C   0  0  0  0  0  0  0  0  0  0  0  0
   11.2199  -15.3331  -13.9855 C   0  0  0  0  0  0  0  0  0  0  0  0
   11.9533  -16.0358  -14.9894 N   0  0  1  0  0  4  0  0  0  0  0  0
   11.1197  -17.0403  -15.5815 C   0  0  0  0  0  0  0  0  0  0  0  0
   10.9215  -16.8135  -17.0990 C   0  0  0  0  0  0  0  0  0  0  0  0
   12.6830  -15.2114  -15.9026 C   0  0  0  0  0  0  0  0  0  0  0  0
   11.8886  -14.6054  -17.0174 C   0  0  0  0  0  0  0  0  0  0  0  0
   10.6093  -15.3784  -17.2610 C   0  0  1  0  0  0  0  0  0  0  0  0
    9.8507  -14.9612  -18.3814 N   0  0  0  0  0  0  0  0  0  0  0  0
    8.6933  -15.4594  -18.8794 C   0  0  0  0  0  0  0  0  0  0  0  0
    7.8708  -16.5002  -18.5031 C   0  0  0  0  0  0  0  0  0  0  0  0
   10.2183  -13.9007  -19.1816 C   0  0  0  0  0  0  0  0  0  0  0  0
   11.2471  -13.1948  -19.0189 O   0  0  0  0  0  0  0  0  0  0  0  0
    9.3371  -13.7185  -20.1569 N   0  0  0  0  0  0  0  0  0  0  0  0
    9.3970  -12.6994  -21.1863 C   0  0  0  0  0  0  0  0  0  0  0  0
    8.3860  -14.6711  -19.9888 C   0  0  0  0  0  0  0  0  0  0  0  0
    7.2521  -14.9086  -20.7412 C   0  0  0  0  0  0  0  0  0  0  0  0
    6.4349  -15.9592  -20.3495 C   0  0  0  0  0  0  0  0  0  0  0  0
    6.7401  -16.7363  -19.2539 C   0  0  0  0  0  0  0  0  0  0  0  0
    5.8717  -17.7942  -18.8970 N   0  0  0  0  0  0  0  0  0  0  0  0
    5.7006  -18.8736  -19.8321 C   0  0  0  0  0  0  0  0  0  0  0  0
    5.9750  -18.6683  -21.0383 O   0  0  0  0  0  0  0  0  0  0  0  0
    5.2171  -20.1825  -19.3895 C   0  0  0  0  0  0  0  0  0  0  0  0
    4.0767  -20.6175  -20.2812 C   0  0  0  0  0  0  0  0  0  0  0  0
  1  2  2  0
  1  6  1  0
  2  3  1  0
  3  4  2  0
  4  5  1  0
  5  6  2  0
  6  7  1  0
  7  8  2  0
  7 17  1  0
  8  9  1  0
  9 10  1  0
  9 15  2  0
 10 11  2  0
 10 12  1  0
 12 13  2  0
 13 14  1  0
 14 15  1  0
 15 16  1  0
 16 17  2  0
 17 18  1  0
 18 19  2  0
 18 21  1  0
 19 20  1  0
 20 23  2  0
 21 22  2  0
 22 23  1  0
 23 24  1  0
 25 24  1  6
 25 26  1  0
 25 28  1  0
 26 27  1  0
 27 30  1  0
 28 29  1  0
 29 30  1  0
 30 31  1  6
 31 32  1  0
 31 34  1  0
 32 33  2  0
 32 38  1  0
 33 41  1  0
 34 35  2  0
 34 36  1  0
 36 37  1  0
 36 38  1  0
 38 39  2  0
 39 40  1  0
 40 41  2  0
 41 42  1  0
 42 43  1  0
 43 44  2  0
 43 45  1  0
 45 46  1  0
M  CHG  1  25   1
M  END
$$$$
