
     RDKit          3D

 46 52  0  0  0  0  0  0  0  0999 V2000
   15.5943  -16.8690   -8.9635 C   0  0  0  0  0  0  0  0  0  0  0  0
   15.8411  -18.1822   -9.3076 C   0  0  0  0  0  0  0  0  0  0  0  0
   17.0870  -18.6060   -9.7149 C   0  0  0  0  0  0  0  0  0  0  0  0
   18.0944  -17.6567   -9.7675 C   0  0  0  0  0  0  0  0  0  0  0  0
   17.8352  -16.3506   -9.4218 C   0  0  0  0  0  0  0  0  0  0  0  0
   16.5949  -15.9210   -9.0145 C   0  0  0  0  0  0  0  0  0  0  0  0
   16.2675  -14.5547   -8.6381 C   0  0  0  0  0  0  0  0  0  0  0  0
   16.8743  -13.9117   -7.5794 C   0  0  0  0  0  0  0  0  0  0  0  0
   16.5158  -12.6060   -7.2752 C   0  0  0  0  0  0  0  0  0  0  0  0
   17.1388  -11.8978   -6.1615 C   0  0  0  0  0  0  0  0  0  0  0  0
   18.0136  -12.5575   -5.5102 O   0  0  0  0  0  0  0  0  0  0  0  0
   16.7998  -10.5645   -5.8195 N   0  0  0  0  0  0  0  0  0  0  0  0
   15.9081   -9.9579   -6.5196 C   0  0  0  0  0  0  0  0  0  0  0  0
   15.1825  -10.5047   -7.6632 C   0  0  0  0  0  0  0  0  0  0  0  0
   15.5686  -11.8998   -7.9850 C   0  0  0  0  0  0  0  0  0  0  0  0
   14.9903  -12.5609   -9.0210 N   0  0  0  0  0  0  0  0  0  0  0  0
   15.3191  -13.8249   -9.3365 C   0  0  0  0  0  0  0  0  0  0  0  0
   14.6778  -14.5295  -10.4643 C   0  0  0  0  0  0  0  0  0  0  0  0
   13.3136  -14.7529  -10.4560 C   0  0  0  0  0  0  0  0  0  0  0  0
   12.6902  -15.4191  -11.5179 C   0  0  0  0  0  0  0  0  0  0  0  0
   15.4031  -14.9711  -11.5268 C   0  0  0  0  0  0  0  0  0  0  0  0
   14.7807  -15.6255  -12.5664 C   0  0  0  0  0  0  0  0  0  0  0  0
   13.4232  -15.8671  -12.5951 C   0  0  0  0  0  0  0  0  0  0  0  0
   12.8484  -16.5647  -13.7451 C   0  0  0  0  0  0  0  0  0  0  0  0
   13.3032  -16.1180  -15.0231 N   0  0  1  0  0  4  0  0  0  0  0  0
   13.3100  -17.2165  -15.9437 C   0  0  0  0  0  0  0  0  0  0  0  0
   12.3690  -16.9742  -17.1476 C   0  0  0  0  0  0  0  0  0  0  0  0
   12.7031  -14.9091  -15.4969 C   0  0  0  0  0  0  0  0  0  0  0  0
   11.3468  -15.0488  -16.1151 C   0  0  0  0  0  0  0  0  0  0  0  0
   11.1013  -16.4688  -16.5810 C   0  0  1  0  0  0  0  0  0  0  0  0
    9.8971  -16.6742  -17.2969 N   0  0  0  0  0  0  0  0  0  0  0  0
    9.6778  -17.3542  -18.4482 C   0  0  0  0  0  0  0  0  0  0  0  0
   10.4990  -18.0578  -19.3038 C   0  0  0  0  0  0  0  0  0  0  0  0
    8.6837  -16.1692  -16.8816 C   0  0  0  0  0  0  0  0  0  0  0  0
    8.5043  -15.4803  -15.8441 O   0  0  0  0  0  0  0  0  0  0  0  0
    7.7182  -16.5072  -17.7270 N   0  0  0  0  0  0  0  0  0  0  0  0
    6.3169  -16.1537  -17.6127 C   0  0  0  0  0  0  0  0  0  0  0  0
    8.3107  -17.2401  -18.7028 C   0  0  0  0  0  0  0  0  0  0  0  0
    7.7404  -17.8267  -19.8159 C   0  0  0  0  0  0  0  0  0  0  0  0
    8.5801  -18.5311  -20.6666 C   0  0  0  0  0  0  0  0  0  0  0  0
    9.9295  -18.6426  -20.4135 C   0  0  0  0  0  0  0  0  0  0  0  0
   10.7404  -19.3738  -21.3127 N   0  0  0  0  0  0  0  0  0  0  0  0
   11.9806  -18.7829  -21.7386 C   0  0  0  0  0  0  0  0  0  0  0  0
   12.7255  -18.2669  -20.8718 O   0  0  0  0  0  0  0  0  0  0  0  0
   12.3673  -18.7816  -23.1505 C   0  0  0  0  0  0  0  0  0  0  0  0
   11.7117  -19.9530  -23.8454 C   0  0  0  0  0  0  0  0  0  0  0  0
  1  2  2  0
  1  6  1  0
  2  3  1  0
  3  4  2  0
  4  5  1  0
  5  6  2  0
  6  7  1  0
  7  8  2  0
  7 17  1  0
  8  9  1  0
  9 10  1  0
  9 15  2  0
 10 11  2  0
 10 12  1  0
 12 13  2  0
 13 14  1  0
 14 15  1  0
 15 16  1  0
 16 17  2  0
 17 18  1  0
 18 19  2  0
 18 21  1  0
 19 20  1  0
 20 23  2  0
 21 22  2  0
 22 23  1  0
 23 24  1  0
 25 24  1  1
 25 26  1  0
 25 28  1  0
 26 27  1  0
 27 30  1  0
 28 29  1  0
 29 30  1  0
 30 31  1  6
 31 32  1  0
 31 34  1  0
 32 33  2  0
 32 38  1  0
 33 41  1  0
 34 35  2  0
 34 36  1  0
 36 37  1  0
 36 38  1  0
 38 39  2  0
 39 40  1  0
 40 41  2  0
 41 42  1  0
 42 43  1  0
 43 44  2  0
 43 45  1  0
 45 46  1  0
M  CHG  1  25   1
M  END
$$$$
