
     RDKit          3D

 46 52  0  0  0  0  0  0  0  0999 V2000
   15.1141  -16.3199   -8.9294 C   0  0  0  0  0  0  0  0  0  0  0  0
   15.3317  -17.5794   -9.4492 C   0  0  0  0  0  0  0  0  0  0  0  0
   15.9831  -17.7693  -10.6482 C   0  0  0  0  0  0  0  0  0  0  0  0
   16.4167  -16.6386  -11.3209 C   0  0  0  0  0  0  0  0  0  0  0  0
   16.1934  -15.3885  -10.7916 C   0  0  0  0  0  0  0  0  0  0  0  0
   15.5445  -15.1918   -9.5962 C   0  0  0  0  0  0  0  0  0  0  0  0
   15.2833  -13.8946   -8.9925 C   0  0  0  0  0  0  0  0  0  0  0  0
   15.9038  -13.4778   -7.8334 C   0  0  0  0  0  0  0  0  0  0  0  0
   15.6096  -12.2259   -7.3116 C   0  0  0  0  0  0  0  0  0  0  0  0
   16.2489  -11.7553   -6.0869 C   0  0  0  0  0  0  0  0  0  0  0  0
   17.0754  -12.5646   -5.5516 O   0  0  0  0  0  0  0  0  0  0  0  0
   15.9749  -10.4840   -5.5229 N   0  0  0  0  0  0  0  0  0  0  0  0
   15.1295   -9.7176   -6.1156 C   0  0  0  0  0  0  0  0  0  0  0  0
   14.3969  -10.0187   -7.3428 C   0  0  0  0  0  0  0  0  0  0  0  0
   14.7143  -11.3569   -7.8972 C   0  0  0  0  0  0  0  0  0  0  0  0
   14.1207  -11.7970   -9.0368 N   0  0  0  0  0  0  0  0  0  0  0  0
   14.3877  -13.0043   -9.5628 C   0  0  0  0  0  0  0  0  0  0  0  0
   13.7306  -13.4679  -10.8009 C   0  0  0  0  0  0  0  0  0  0  0  0
   12.6489  -14.3259  -10.7317 C   0  0  0  0  0  0  0  0  0  0  0  0
   12.0146  -14.7743  -11.8964 C   0  0  0  0  0  0  0  0  0  0  0  0
   14.1668  -13.0679  -12.0256 C   0  0  0  0  0  0  0  0  0  0  0  0
   13.5361  -13.5147  -13.1653 C   0  0  0  0  0  0  0  0  0  0  0  0
   12.4547  -14.3702  -13.1379 C   0  0  0  0  0  0  0  0  0  0  0  0
   11.8446  -14.7872  -14.4002 C   0  0  0  0  0  0  0  0  0  0  0  0
   10.9431  -15.8912  -14.3100 N   0  0  1  0  0  4  0  0  0  0  0  0
    9.8771  -15.7218  -15.2530 C   0  0  0  0  0  0  0  0  0  0  0  0
    9.8272  -16.8696  -16.2891 C   0  0  0  0  0  0  0  0  0  0  0  0
   11.5585  -17.1822  -14.2876 C   0  0  0  0  0  0  0  0  0  0  0  0
   11.9766  -17.7324  -15.6156 C   0  0  0  0  0  0  0  0  0  0  0  0
   11.2181  -17.0691  -16.7463 C   0  0  1  0  0  0  0  0  0  0  0  0
   11.4484  -17.6118  -18.0336 N   0  0  0  0  0  0  0  0  0  0  0  0
   11.7430  -18.8828  -18.3990 C   0  0  0  0  0  0  0  0  0  0  0  0
   11.9199  -20.0542  -17.6934 C   0  0  0  0  0  0  0  0  0  0  0  0
   11.3967  -16.8558  -19.1850 C   0  0  0  0  0  0  0  0  0  0  0  0
   11.1475  -15.6233  -19.2302 O   0  0  0  0  0  0  0  0  0  0  0  0
   11.6468  -17.6042  -20.2520 N   0  0  0  0  0  0  0  0  0  0  0  0
   11.6777  -17.1506  -21.6285 C   0  0  0  0  0  0  0  0  0  0  0  0
   11.8634  -18.8608  -19.7889 C   0  0  0  0  0  0  0  0  0  0  0  0
   12.1625  -20.0082  -20.4977 C   0  0  0  0  0  0  0  0  0  0  0  0
   12.3374  -21.1784  -19.7732 C   0  0  0  0  0  0  0  0  0  0  0  0
   12.2180  -21.1980  -18.4011 C   0  0  0  0  0  0  0  0  0  0  0  0
   12.4046  -22.4187  -17.7112 N   0  0  0  0  0  0  0  0  0  0  0  0
   13.2744  -22.4221  -16.5658 C   0  0  0  0  0  0  0  0  0  0  0  0
   13.6639  -21.3216  -16.1079 O   0  0  0  0  0  0  0  0  0  0  0  0
   13.6976  -23.6792  -15.9466 C   0  0  0  0  0  0  0  0  0  0  0  0
   14.3459  -23.3822  -14.6137 C   0  0  0  0  0  0  0  0  0  0  0  0
  1  2  2  0
  1  6  1  0
  2  3  1  0
  3  4  2  0
  4  5  1  0
  5  6  2  0
  6  7  1  0
  7  8  2  0
  7 17  1  0
  8  9  1  0
  9 10  1  0
  9 15  2  0
 10 11  2  0
 10 12  1  0
 12 13  2  0
 13 14  1  0
 14 15  1  0
 15 16  1  0
 16 17  2  0
 17 18  1  0
 18 19  2  0
 18 21  1  0
 19 20  1  0
 20 23  2  0
 21 22  2  0
 22 23  1  0
 23 24  1  0
 25 24  1  6
 25 26  1  0
 25 28  1  0
 26 27  1  0
 27 30  1  0
 28 29  1  0
 29 30  1  0
 30 31  1  6
 31 32  1  0
 31 34  1  0
 32 33  2  0
 32 38  1  0
 33 41  1  0
 34 35  2  0
 34 36  1  0
 36 37  1  0
 36 38  1  0
 38 39  2  0
 39 40  1  0
 40 41  2  0
 41 42  1  0
 42 43  1  0
 43 44  2  0
 43 45  1  0
 45 46  1  0
M  CHG  1  25   1
M  END
$$$$
