
     RDKit          3D

 46 52  0  0  0  0  0  0  0  0999 V2000
   17.3825  -16.5401   -9.4492 C   0  0  0  0  0  0  0  0  0  0  0  0
   17.5264  -17.7329  -10.1278 C   0  0  0  0  0  0  0  0  0  0  0  0
   16.4391  -18.4610  -10.5585 C   0  0  0  0  0  0  0  0  0  0  0  0
   15.1823  -17.9476  -10.2831 C   0  0  0  0  0  0  0  0  0  0  0  0
   15.0526  -16.7573   -9.6057 C   0  0  0  0  0  0  0  0  0  0  0  0
   16.1328  -16.0258   -9.1733 C   0  0  0  0  0  0  0  0  0  0  0  0
   16.0518  -14.7638   -8.4548 C   0  0  0  0  0  0  0  0  0  0  0  0
   16.7854  -14.5116   -7.3144 C   0  0  0  0  0  0  0  0  0  0  0  0
   16.6617  -13.2843   -6.6783 C   0  0  0  0  0  0  0  0  0  0  0  0
   17.4239  -12.9863   -5.4699 C   0  0  0  0  0  0  0  0  0  0  0  0
   18.1900  -13.9182   -5.0586 O   0  0  0  0  0  0  0  0  0  0  0  0
   17.3249  -11.7453   -4.7919 N   0  0  0  0  0  0  0  0  0  0  0  0
   16.5318  -10.8491   -5.2622 C   0  0  0  0  0  0  0  0  0  0  0  0
   15.6953  -10.9694   -6.4535 C   0  0  0  0  0  0  0  0  0  0  0  0
   15.8307  -12.2819   -7.1302 C   0  0  0  0  0  0  0  0  0  0  0  0
   15.1225  -12.5616   -8.2549 N   0  0  0  0  0  0  0  0  0  0  0  0
   15.2238  -13.7415   -8.8897 C   0  0  0  0  0  0  0  0  0  0  0  0
   14.4439  -14.0297  -10.1097 C   0  0  0  0  0  0  0  0  0  0  0  0
   13.0647  -14.1017  -10.0495 C   0  0  0  0  0  0  0  0  0  0  0  0
   12.3108  -14.3737  -11.1974 C   0  0  0  0  0  0  0  0  0  0  0  0
   15.0543  -14.2291  -11.3088 C   0  0  0  0  0  0  0  0  0  0  0  0
   14.3038  -14.4961  -12.4321 C   0  0  0  0  0  0  0  0  0  0  0  0
   12.9271  -14.5758  -12.4129 C   0  0  0  0  0  0  0  0  0  0  0  0
   12.2129  -14.8581  -13.6578 C   0  0  0  0  0  0  0  0  0  0  0  0
   12.6135  -16.0483  -14.3379 N   0  0  1  0  0  4  0  0  0  0  0  0
   11.4741  -16.8932  -14.5433 C   0  0  0  0  0  0  0  0  0  0  0  0
   11.2022  -17.1510  -16.0443 C   0  0  0  0  0  0  0  0  0  0  0  0
   13.4558  -15.8474  -15.4763 C   0  0  0  0  0  0  0  0  0  0  0  0
   12.7632  -15.4499  -16.7426 C   0  0  0  0  0  0  0  0  0  0  0  0
   11.2989  -15.8352  -16.7096 C   0  0  1  0  0  0  0  0  0  0  0  0
   10.5859  -15.6185  -17.9136 N   0  0  0  0  0  0  0  0  0  0  0  0
   10.4552  -16.4176  -18.9999 C   0  0  0  0  0  0  0  0  0  0  0  0
   10.9417  -17.6675  -19.3203 C   0  0  0  0  0  0  0  0  0  0  0  0
    9.8663  -14.4693  -18.1611 C   0  0  0  0  0  0  0  0  0  0  0  0
    9.7605  -13.4976  -17.3687 O   0  0  0  0  0  0  0  0  0  0  0  0
    9.2930  -14.5204  -19.3569 N   0  0  0  0  0  0  0  0  0  0  0  0
    8.4618  -13.4932  -19.9531 C   0  0  0  0  0  0  0  0  0  0  0  0
    9.6438  -15.7164  -19.8925 C   0  0  0  0  0  0  0  0  0  0  0  0
    9.3044  -16.2514  -21.1201 C   0  0  0  0  0  0  0  0  0  0  0  0
    9.8016  -17.5097  -21.4272 C   0  0  0  0  0  0  0  0  0  0  0  0
   10.6026  -18.2004  -20.5446 C   0  0  0  0  0  0  0  0  0  0  0  0
   11.0816  -19.4810  -20.9070 N   0  0  0  0  0  0  0  0  0  0  0  0
   11.9267  -20.1760  -19.9735 C   0  0  0  0  0  0  0  0  0  0  0  0
   11.8596  -19.8651  -18.7606 O   0  0  0  0  0  0  0  0  0  0  0  0
   12.8453  -21.2223  -20.4255 C   0  0  0  0  0  0  0  0  0  0  0  0
   12.6945  -22.4338  -19.5342 C   0  0  0  0  0  0  0  0  0  0  0  0
  1  2  2  0
  1  6  1  0
  2  3  1  0
  3  4  2  0
  4  5  1  0
  5  6  2  0
  6  7  1  0
  7  8  2  0
  7 17  1  0
  8  9  1  0
  9 10  1  0
  9 15  2  0
 10 11  2  0
 10 12  1  0
 12 13  2  0
 13 14  1  0
 14 15  1  0
 15 16  1  0
 16 17  2  0
 17 18  1  0
 18 19  2  0
 18 21  1  0
 19 20  1  0
 20 23  2  0
 21 22  2  0
 22 23  1  0
 23 24  1  0
 25 24  1  6
 25 26  1  0
 25 28  1  0
 26 27  1  0
 27 30  1  0
 28 29  1  0
 29 30  1  0
 30 31  1  6
 31 32  1  0
 31 34  1  0
 32 33  2  0
 32 38  1  0
 33 41  1  0
 34 35  2  0
 34 36  1  0
 36 37  1  0
 36 38  1  0
 38 39  2  0
 39 40  1  0
 40 41  2  0
 41 42  1  0
 42 43  1  0
 43 44  2  0
 43 45  1  0
 45 46  1  0
M  CHG  1  25   1
M  END
$$$$
