
     RDKit          3D

 46 52  0  0  0  0  0  0  0  0999 V2000
   15.7580  -15.6025  -11.0030 C   0  0  0  0  0  0  0  0  0  0  0  0
   15.9215  -16.8980  -11.4489 C   0  0  0  0  0  0  0  0  0  0  0  0
   15.6223  -17.9839  -10.6558 C   0  0  0  0  0  0  0  0  0  0  0  0
   15.1463  -17.7265   -9.3806 C   0  0  0  0  0  0  0  0  0  0  0  0
   14.9878  -16.4301   -8.9482 C   0  0  0  0  0  0  0  0  0  0  0  0
   15.2842  -15.3422   -9.7340 C   0  0  0  0  0  0  0  0  0  0  0  0
   15.1350  -13.9539   -9.3270 C   0  0  0  0  0  0  0  0  0  0  0  0
   15.7924  -13.4267   -8.2351 C   0  0  0  0  0  0  0  0  0  0  0  0
   15.6063  -12.0922   -7.9027 C   0  0  0  0  0  0  0  0  0  0  0  0
   16.2872  -11.5040   -6.7536 C   0  0  0  0  0  0  0  0  0  0  0  0
   17.0445  -12.2933   -6.0994 O   0  0  0  0  0  0  0  0  0  0  0  0
   16.1229  -10.1459   -6.3822 N   0  0  0  0  0  0  0  0  0  0  0  0
   15.3429   -9.4056   -7.0870 C   0  0  0  0  0  0  0  0  0  0  0  0
   14.5834   -9.8192   -8.2640 C   0  0  0  0  0  0  0  0  0  0  0  0
   14.7853  -11.2455   -8.6159 C   0  0  0  0  0  0  0  0  0  0  0  0
   14.1528  -11.7950   -9.6849 N   0  0  0  0  0  0  0  0  0  0  0  0
   14.3155  -13.0839  -10.0281 C   0  0  0  0  0  0  0  0  0  0  0  0
   13.6175  -13.6657  -11.1917 C   0  0  0  0  0  0  0  0  0  0  0  0
   14.0159  -13.3371  -12.4740 C   0  0  0  0  0  0  0  0  0  0  0  0
   13.3646  -13.8805  -13.5879 C   0  0  0  0  0  0  0  0  0  0  0  0
   12.5781  -14.5288  -11.0341 C   0  0  0  0  0  0  0  0  0  0  0  0
   11.9439  -15.0577  -12.1361 C   0  0  0  0  0  0  0  0  0  0  0  0
   12.3117  -14.7550  -13.4304 C   0  0  0  0  0  0  0  0  0  0  0  0
   11.5836  -15.3703  -14.5398 C   0  0  0  0  0  0  0  0  0  0  0  0
   11.9946  -14.9607  -15.8448 N   0  0  1  0  0  4  0  0  0  0  0  0
   13.1005  -15.7636  -16.2765 C   0  0  0  0  0  0  0  0  0  0  0  0
   12.7761  -16.5601  -17.5626 C   0  0  0  0  0  0  0  0  0  0  0  0
   10.9373  -14.7915  -16.7932 C   0  0  0  0  0  0  0  0  0  0  0  0
   10.4236  -16.0437  -17.4329 C   0  0  0  0  0  0  0  0  0  0  0  0
   11.4432  -17.1602  -17.3470 C   0  0  1  0  0  0  0  0  0  0  0  0
   11.1034  -18.3485  -18.0380 N   0  0  0  0  0  0  0  0  0  0  0  0
   11.5790  -19.6078  -17.8836 C   0  0  0  0  0  0  0  0  0  0  0  0
   12.5189  -20.1690  -17.0450 C   0  0  0  0  0  0  0  0  0  0  0  0
   10.1615  -18.3865  -19.0437 C   0  0  0  0  0  0  0  0  0  0  0  0
    9.5083  -17.3951  -19.4603 O   0  0  0  0  0  0  0  0  0  0  0  0
   10.0313  -19.6178  -19.5213 N   0  0  0  0  0  0  0  0  0  0  0  0
    9.1360  -20.0348  -20.5825 C   0  0  0  0  0  0  0  0  0  0  0  0
   10.8982  -20.3887  -18.8182 C   0  0  0  0  0  0  0  0  0  0  0  0
   11.1443  -21.7433  -18.9311 C   0  0  0  0  0  0  0  0  0  0  0  0
   12.0926  -22.2927  -18.0803 C   0  0  0  0  0  0  0  0  0  0  0  0
   12.7636  -21.5200  -17.1583 C   0  0  0  0  0  0  0  0  0  0  0  0
   13.7196  -22.1309  -16.3136 N   0  0  0  0  0  0  0  0  0  0  0  0
   14.0639  -23.5047  -16.5644 C   0  0  0  0  0  0  0  0  0  0  0  0
   14.0000  -23.9314  -17.7418 O   0  0  0  0  0  0  0  0  0  0  0  0
   14.4792  -24.3873  -15.4728 C   0  0  0  0  0  0  0  0  0  0  0  0
   15.1051  -25.6344  -16.0540 C   0  0  0  0  0  0  0  0  0  0  0  0
  1  2  2  0
  1  6  1  0
  2  3  1  0
  3  4  2  0
  4  5  1  0
  5  6  2  0
  6  7  1  0
  7  8  2  0
  7 17  1  0
  8  9  1  0
  9 10  1  0
  9 15  2  0
 10 11  2  0
 10 12  1  0
 12 13  2  0
 13 14  1  0
 14 15  1  0
 15 16  1  0
 16 17  2  0
 17 18  1  0
 18 19  2  0
 18 21  1  0
 19 20  1  0
 20 23  2  0
 21 22  2  0
 22 23  1  0
 23 24  1  0
 25 24  1  1
 25 26  1  0
 25 28  1  0
 26 27  1  0
 27 30  1  0
 28 29  1  0
 29 30  1  0
 30 31  1  6
 31 32  1  0
 31 34  1  0
 32 33  2  0
 32 38  1  0
 33 41  1  0
 34 35  2  0
 34 36  1  0
 36 37  1  0
 36 38  1  0
 38 39  2  0
 39 40  1  0
 40 41  2  0
 41 42  1  0
 42 43  1  0
 43 44  2  0
 43 45  1  0
 45 46  1  0
M  CHG  1  25   1
M  END
$$$$
