
     RDKit          3D

 46 52  0  0  0  0  0  0  0  0999 V2000
   15.7908  -12.0642   -9.5779 C   0  0  0  0  0  0  0  0  0  0  0  0
   15.1891  -10.8429   -9.8025 C   0  0  0  0  0  0  0  0  0  0  0  0
   14.5303  -10.1614   -8.8028 C   0  0  0  0  0  0  0  0  0  0  0  0
   14.4926  -10.7521   -7.5504 C   0  0  0  0  0  0  0  0  0  0  0  0
   15.0965  -11.9701   -7.3397 C   0  0  0  0  0  0  0  0  0  0  0  0
   15.7555  -12.6553   -8.3322 C   0  0  0  0  0  0  0  0  0  0  0  0
   16.4101  -13.9432   -8.1635 C   0  0  0  0  0  0  0  0  0  0  0  0
   17.3962  -14.1561   -7.2229 C   0  0  0  0  0  0  0  0  0  0  0  0
   17.9785  -15.4111   -7.1137 C   0  0  0  0  0  0  0  0  0  0  0  0
   19.0244  -15.6689   -6.1289 C   0  0  0  0  0  0  0  0  0  0  0  0
   19.3495  -14.6760   -5.3987 O   0  0  0  0  0  0  0  0  0  0  0  0
   19.6431  -16.9363   -5.9869 N   0  0  0  0  0  0  0  0  0  0  0  0
   19.2663  -17.8944   -6.7572 C   0  0  0  0  0  0  0  0  0  0  0  0
   18.2406  -17.8217   -7.7944 C   0  0  0  0  0  0  0  0  0  0  0  0
   17.6207  -16.4794   -7.9075 C   0  0  0  0  0  0  0  0  0  0  0  0
   16.6472  -16.2371   -8.8232 N   0  0  0  0  0  0  0  0  0  0  0  0
   16.0674  -15.0316   -8.9495 C   0  0  0  0  0  0  0  0  0  0  0  0
   15.0126  -14.7850   -9.9527 C   0  0  0  0  0  0  0  0  0  0  0  0
   15.3323  -14.7372  -11.2967 C   0  0  0  0  0  0  0  0  0  0  0  0
   14.3437  -14.5047  -12.2604 C   0  0  0  0  0  0  0  0  0  0  0  0
   13.7159  -14.6012   -9.5852 C   0  0  0  0  0  0  0  0  0  0  0  0
   12.7509  -14.3731  -10.5407 C   0  0  0  0  0  0  0  0  0  0  0  0
   13.0298  -14.3184  -11.8903 C   0  0  0  0  0  0  0  0  0  0  0  0
   11.9382  -14.0771  -12.8336 C   0  0  0  0  0  0  0  0  0  0  0  0
   12.3114  -13.4278  -14.0496 N   0  0  1  0  0  4  0  0  0  0  0  0
   12.9213  -14.3756  -14.9351 C   0  0  0  0  0  0  0  0  0  0  0  0
   12.1353  -14.5266  -16.2590 C   0  0  0  0  0  0  0  0  0  0  0  0
   11.3070  -12.5892  -14.6276 C   0  0  0  0  0  0  0  0  0  0  0  0
   10.2444  -13.2878  -15.4176 C   0  0  0  0  0  0  0  0  0  0  0  0
   10.7131  -14.6522  -15.8786 C   0  0  1  0  0  0  0  0  0  0  0  0
    9.8272  -15.3392  -16.7436 N   0  0  0  0  0  0  0  0  0  0  0  0
   10.0770  -16.3336  -17.6293 C   0  0  0  0  0  0  0  0  0  0  0  0
   11.2221  -17.0075  -17.9986 C   0  0  0  0  0  0  0  0  0  0  0  0
    8.4774  -15.0666  -16.8033 C   0  0  0  0  0  0  0  0  0  0  0  0
    7.8847  -14.1952  -16.1158 O   0  0  0  0  0  0  0  0  0  0  0  0
    7.8769  -15.8507  -17.6896 N   0  0  0  0  0  0  0  0  0  0  0  0
    6.4652  -15.8469  -18.0193 C   0  0  0  0  0  0  0  0  0  0  0  0
    8.8473  -16.6419  -18.2119 C   0  0  0  0  0  0  0  0  0  0  0  0
    8.7400  -17.6284  -19.1730 C   0  0  0  0  0  0  0  0  0  0  0  0
    9.9010  -18.2971  -19.5334 C   0  0  0  0  0  0  0  0  0  0  0  0
   11.1141  -17.9912  -18.9570 C   0  0  0  0  0  0  0  0  0  0  0  0
   12.2670  -18.7050  -19.3597 N   0  0  0  0  0  0  0  0  0  0  0  0
   12.2227  -20.1419  -19.3150 C   0  0  0  0  0  0  0  0  0  0  0  0
   11.1162  -20.7108  -19.4714 O   0  0  0  0  0  0  0  0  0  0  0  0
   13.4391  -20.9252  -19.0917 C   0  0  0  0  0  0  0  0  0  0  0  0
   13.6824  -21.8156  -20.2887 C   0  0  0  0  0  0  0  0  0  0  0  0
  1  2  2  0
  1  6  1  0
  2  3  1  0
  3  4  2  0
  4  5  1  0
  5  6  2  0
  6  7  1  0
  7  8  2  0
  7 17  1  0
  8  9  1  0
  9 10  1  0
  9 15  2  0
 10 11  2  0
 10 12  1  0
 12 13  2  0
 13 14  1  0
 14 15  1  0
 15 16  1  0
 16 17  2  0
 17 18  1  0
 18 19  2  0
 18 21  1  0
 19 20  1  0
 20 23  2  0
 21 22  2  0
 22 23  1  0
 23 24  1  0
 25 24  1  1
 25 26  1  0
 25 28  1  0
 26 27  1  0
 27 30  1  0
 28 29  1  0
 29 30  1  0
 30 31  1  6
 31 32  1  0
 31 34  1  0
 32 33  2  0
 32 38  1  0
 33 41  1  0
 34 35  2  0
 34 36  1  0
 36 37  1  0
 36 38  1  0
 38 39  2  0
 39 40  1  0
 40 41  2  0
 41 42  1  0
 42 43  1  0
 43 44  2  0
 43 45  1  0
 45 46  1  0
M  CHG  1  25   1
M  END
$$$$
