
     RDKit          3D

 46 52  0  0  0  0  0  0  0  0999 V2000
   15.6772  -11.9183   -7.0751 C   0  0  0  0  0  0  0  0  0  0  0  0
   14.9649  -10.7953   -7.4432 C   0  0  0  0  0  0  0  0  0  0  0  0
   14.9011  -10.3705   -8.7521 C   0  0  0  0  0  0  0  0  0  0  0  0
   15.5851  -11.1188   -9.6962 C   0  0  0  0  0  0  0  0  0  0  0  0
   16.2916  -12.2364   -9.3160 C   0  0  0  0  0  0  0  0  0  0  0  0
   16.3594  -12.6659   -8.0123 C   0  0  0  0  0  0  0  0  0  0  0  0
   17.0901  -13.8383   -7.5572 C   0  0  0  0  0  0  0  0  0  0  0  0
   18.0043  -13.7878   -6.5256 C   0  0  0  0  0  0  0  0  0  0  0  0
   18.6660  -14.9452   -6.1402 C   0  0  0  0  0  0  0  0  0  0  0  0
   19.6390  -14.9254   -5.0526 C   0  0  0  0  0  0  0  0  0  0  0  0
   19.8257  -13.7912   -4.5018 O   0  0  0  0  0  0  0  0  0  0  0  0
   20.3350  -16.0858   -4.6301 N   0  0  0  0  0  0  0  0  0  0  0  0
   20.0979  -17.1979   -5.2304 C   0  0  0  0  0  0  0  0  0  0  0  0
   19.1631  -17.4067   -6.3330 C   0  0  0  0  0  0  0  0  0  0  0  0
   18.4579  -16.1678   -6.7415 C   0  0  0  0  0  0  0  0  0  0  0  0
   17.5520  -16.1838   -7.7533 N   0  0  0  0  0  0  0  0  0  0  0  0
   16.8979  -15.0777   -8.1459 C   0  0  0  0  0  0  0  0  0  0  0  0
   15.9185  -15.1127   -9.2501 C   0  0  0  0  0  0  0  0  0  0  0  0
   14.5983  -14.7758   -9.0162 C   0  0  0  0  0  0  0  0  0  0  0  0
   13.6574  -14.8036  -10.0525 C   0  0  0  0  0  0  0  0  0  0  0  0
   16.2850  -15.4724  -10.5097 C   0  0  0  0  0  0  0  0  0  0  0  0
   15.3520  -15.4966  -11.5222 C   0  0  0  0  0  0  0  0  0  0  0  0
   14.0267  -15.1675  -11.3290 C   0  0  0  0  0  0  0  0  0  0  0  0
   13.1080  -15.2159  -12.4662 C   0  0  0  0  0  0  0  0  0  0  0  0
   11.8874  -14.4935  -12.2993 N   0  0  1  0  0  4  0  0  0  0  0  0
   11.9688  -13.2421  -12.9932 C   0  0  0  0  0  0  0  0  0  0  0  0
   10.8933  -13.1169  -14.0983 C   0  0  0  0  0  0  0  0  0  0  0  0
   10.6941  -15.2519  -12.5160 C   0  0  0  0  0  0  0  0  0  0  0  0
   10.2921  -15.4478  -13.9447 C   0  0  0  0  0  0  0  0  0  0  0  0
   10.9158  -14.3958  -14.8380 C   0  0  1  0  0  0  0  0  0  0  0  0
   10.4929  -14.4171  -16.1892 N   0  0  0  0  0  0  0  0  0  0  0  0
    9.2456  -14.3187  -16.7092 C   0  0  0  0  0  0  0  0  0  0  0  0
    7.9945  -14.1716  -16.1482 C   0  0  0  0  0  0  0  0  0  0  0  0
   11.3682  -14.5492  -17.2457 C   0  0  0  0  0  0  0  0  0  0  0  0
   12.6166  -14.6664  -17.1401 O   0  0  0  0  0  0  0  0  0  0  0  0
   10.7169  -14.5369  -18.4019 N   0  0  0  0  0  0  0  0  0  0  0  0
   11.3090  -14.6531  -19.7200 C   0  0  0  0  0  0  0  0  0  0  0  0
    9.4035  -14.3952  -18.0934 C   0  0  0  0  0  0  0  0  0  0  0  0
    8.3148  -14.3258  -18.9409 C   0  0  0  0  0  0  0  0  0  0  0  0
    7.0631  -14.1776  -18.3610 C   0  0  0  0  0  0  0  0  0  0  0  0
    6.9094  -14.1024  -16.9941 C   0  0  0  0  0  0  0  0  0  0  0  0
    5.6107  -13.9496  -16.4549 N   0  0  0  0  0  0  0  0  0  0  0  0
    4.6728  -13.1286  -17.1724 C   0  0  0  0  0  0  0  0  0  0  0  0
    5.0334  -12.6210  -18.2608 O   0  0  0  0  0  0  0  0  0  0  0  0
    3.3277  -12.8885  -16.6469 C   0  0  0  0  0  0  0  0  0  0  0  0
    2.4766  -12.2640  -17.7288 C   0  0  0  0  0  0  0  0  0  0  0  0
  1  2  2  0
  1  6  1  0
  2  3  1  0
  3  4  2  0
  4  5  1  0
  5  6  2  0
  6  7  1  0
  7  8  2  0
  7 17  1  0
  8  9  1  0
  9 10  1  0
  9 15  2  0
 10 11  2  0
 10 12  1  0
 12 13  2  0
 13 14  1  0
 14 15  1  0
 15 16  1  0
 16 17  2  0
 17 18  1  0
 18 19  2  0
 18 21  1  0
 19 20  1  0
 20 23  2  0
 21 22  2  0
 22 23  1  0
 23 24  1  0
 25 24  1  6
 25 26  1  0
 25 28  1  0
 26 27  1  0
 27 30  1  0
 28 29  1  0
 29 30  1  0
 30 31  1  6
 31 32  1  0
 31 34  1  0
 32 33  2  0
 32 38  1  0
 33 41  1  0
 34 35  2  0
 34 36  1  0
 36 37  1  0
 36 38  1  0
 38 39  2  0
 39 40  1  0
 40 41  2  0
 41 42  1  0
 42 43  1  0
 43 44  2  0
 43 45  1  0
 45 46  1  0
M  CHG  1  25   1
M  END
$$$$
