
     RDKit          3D

 46 52  0  0  0  0  0  0  0  0999 V2000
   14.5045  -10.7107   -9.7348 C   0  0  0  0  0  0  0  0  0  0  0  0
   14.0500   -9.6717  -10.5208 C   0  0  0  0  0  0  0  0  0  0  0  0
   14.3815   -9.5688  -11.8540 C   0  0  0  0  0  0  0  0  0  0  0  0
   15.1963  -10.5561  -12.3834 C   0  0  0  0  0  0  0  0  0  0  0  0
   15.6427  -11.5868  -11.5889 C   0  0  0  0  0  0  0  0  0  0  0  0
   15.3158  -11.6957  -10.2584 C   0  0  0  0  0  0  0  0  0  0  0  0
   15.7594  -12.7629   -9.3753 C   0  0  0  0  0  0  0  0  0  0  0  0
   16.3779  -12.5165   -8.1673 C   0  0  0  0  0  0  0  0  0  0  0  0
   16.7749  -13.5821   -7.3717 C   0  0  0  0  0  0  0  0  0  0  0  0
   17.4319  -13.3553   -6.0884 C   0  0  0  0  0  0  0  0  0  0  0  0
   17.6060  -12.1341   -5.7675 O   0  0  0  0  0  0  0  0  0  0  0  0
   17.8519  -14.4168   -5.2479 N   0  0  0  0  0  0  0  0  0  0  0  0
   17.6447  -15.6256   -5.6339 C   0  0  0  0  0  0  0  0  0  0  0  0
   17.0055  -16.0414   -6.8796 C   0  0  0  0  0  0  0  0  0  0  0  0
   16.5826  -14.9000   -7.7265 C   0  0  0  0  0  0  0  0  0  0  0  0
   15.9710  -15.1086   -8.9212 N   0  0  0  0  0  0  0  0  0  0  0  0
   15.5770  -14.0949   -9.7103 C   0  0  0  0  0  0  0  0  0  0  0  0
   14.9163  -14.3400  -11.0076 C   0  0  0  0  0  0  0  0  0  0  0  0
   13.6417  -13.8571  -11.2382 C   0  0  0  0  0  0  0  0  0  0  0  0
   13.0016  -14.0807  -12.4631 C   0  0  0  0  0  0  0  0  0  0  0  0
   15.5366  -15.0381  -11.9966 C   0  0  0  0  0  0  0  0  0  0  0  0
   14.8984  -15.2528  -13.1979 C   0  0  0  0  0  0  0  0  0  0  0  0
   13.6282  -14.7874  -13.4662 C   0  0  0  0  0  0  0  0  0  0  0  0
   13.0321  -15.0585  -14.7741 C   0  0  0  0  0  0  0  0  0  0  0  0
   12.2329  -14.0052  -15.3136 N   0  0  1  0  0  4  0  0  0  0  0  0
   12.4212  -13.9352  -16.7328 C   0  0  0  0  0  0  0  0  0  0  0  0
   11.1042  -14.1748  -17.5084 C   0  0  0  0  0  0  0  0  0  0  0  0
   10.8763  -13.9742  -14.8609 C   0  0  0  0  0  0  0  0  0  0  0  0
    9.9382  -14.9263  -15.5352 C   0  0  0  0  0  0  0  0  0  0  0  0
   10.4717  -15.3562  -16.8858 C   0  0  1  0  0  0  0  0  0  0  0  0
    9.5957  -16.1557  -17.6593 N   0  0  0  0  0  0  0  0  0  0  0  0
    9.8305  -17.3223  -18.3071 C   0  0  0  0  0  0  0  0  0  0  0  0
   10.9470  -18.1192  -18.4481 C   0  0  0  0  0  0  0  0  0  0  0  0
    8.2740  -15.8274  -17.8723 C   0  0  0  0  0  0  0  0  0  0  0  0
    7.7014  -14.8027  -17.4190 O   0  0  0  0  0  0  0  0  0  0  0  0
    7.6766  -16.7419  -18.6259 N   0  0  0  0  0  0  0  0  0  0  0  0
    6.2915  -16.7279  -19.0535 C   0  0  0  0  0  0  0  0  0  0  0  0
    8.6206  -17.6751  -18.9059 C   0  0  0  0  0  0  0  0  0  0  0  0
    8.5050  -18.8297  -19.6554 C   0  0  0  0  0  0  0  0  0  0  0  0
    9.6372  -19.6206  -19.7876 C   0  0  0  0  0  0  0  0  0  0  0  0
   10.8308  -19.2705  -19.1957 C   0  0  0  0  0  0  0  0  0  0  0  0
   11.9544  -20.1137  -19.3608 N   0  0  0  0  0  0  0  0  0  0  0  0
   12.1454  -20.7433  -20.6398 C   0  0  0  0  0  0  0  0  0  0  0  0
   11.2623  -20.5936  -21.5174 O   0  0  0  0  0  0  0  0  0  0  0  0
   13.3415  -21.5415  -20.9140 C   0  0  0  0  0  0  0  0  0  0  0  0
   13.2907  -22.0372  -22.3411 C   0  0  0  0  0  0  0  0  0  0  0  0
  1  2  2  0
  1  6  1  0
  2  3  1  0
  3  4  2  0
  4  5  1  0
  5  6  2  0
  6  7  1  0
  7  8  2  0
  7 17  1  0
  8  9  1  0
  9 10  1  0
  9 15  2  0
 10 11  2  0
 10 12  1  0
 12 13  2  0
 13 14  1  0
 14 15  1  0
 15 16  1  0
 16 17  2  0
 17 18  1  0
 18 19  2  0
 18 21  1  0
 19 20  1  0
 20 23  2  0
 21 22  2  0
 22 23  1  0
 23 24  1  0
 25 24  1  6
 25 26  1  0
 25 28  1  0
 26 27  1  0
 27 30  1  0
 28 29  1  0
 29 30  1  0
 30 31  1  6
 31 32  1  0
 31 34  1  0
 32 33  2  0
 32 38  1  0
 33 41  1  0
 34 35  2  0
 34 36  1  0
 36 37  1  0
 36 38  1  0
 38 39  2  0
 39 40  1  0
 40 41  2  0
 41 42  1  0
 42 43  1  0
 43 44  2  0
 43 45  1  0
 45 46  1  0
M  CHG  1  25   1
M  END
$$$$
