
     RDKit          3D

 46 52  0  0  0  0  0  0  0  0999 V2000
   15.3086  -16.5003  -10.5454 C   0  0  0  0  0  0  0  0  0  0  0  0
   15.4303  -17.4529  -11.5361 C   0  0  0  0  0  0  0  0  0  0  0  0
   16.4054  -17.3738  -12.5061 C   0  0  0  0  0  0  0  0  0  0  0  0
   17.2690  -16.2920  -12.4509 C   0  0  0  0  0  0  0  0  0  0  0  0
   17.1369  -15.3491  -11.4578 C   0  0  0  0  0  0  0  0  0  0  0  0
   16.1667  -15.4219  -10.4872 C   0  0  0  0  0  0  0  0  0  0  0  0
   15.9836  -14.4545   -9.4167 C   0  0  0  0  0  0  0  0  0  0  0  0
   16.9373  -14.2348   -8.4448 C   0  0  0  0  0  0  0  0  0  0  0  0
   16.6990  -13.2949   -7.4519 C   0  0  0  0  0  0  0  0  0  0  0  0
   17.6876  -13.0389   -6.4093 C   0  0  0  0  0  0  0  0  0  0  0  0
   18.7566  -13.7292   -6.4832 O   0  0  0  0  0  0  0  0  0  0  0  0
   17.4812  -12.0876   -5.3788 N   0  0  0  0  0  0  0  0  0  0  0  0
   16.3788  -11.4259   -5.3646 C   0  0  0  0  0  0  0  0  0  0  0  0
   15.2811  -11.5477   -6.3203 C   0  0  0  0  0  0  0  0  0  0  0  0
   15.5399  -12.5527   -7.3796 C   0  0  0  0  0  0  0  0  0  0  0  0
   14.6214  -12.7925   -8.3510 N   0  0  0  0  0  0  0  0  0  0  0  0
   14.8272  -13.6968   -9.3232 C   0  0  0  0  0  0  0  0  0  0  0  0
   13.8162  -13.9471  -10.3696 C   0  0  0  0  0  0  0  0  0  0  0  0
   12.6541  -14.6291  -10.0612 C   0  0  0  0  0  0  0  0  0  0  0  0
   11.6854  -14.8741  -11.0419 C   0  0  0  0  0  0  0  0  0  0  0  0
   13.9997  -13.5184  -11.6475 C   0  0  0  0  0  0  0  0  0  0  0  0
   13.0411  -13.7645  -12.6049 C   0  0  0  0  0  0  0  0  0  0  0  0
   11.8693  -14.4407  -12.3368 C   0  0  0  0  0  0  0  0  0  0  0  0
   10.9052  -14.6502  -13.4165 C   0  0  0  0  0  0  0  0  0  0  0  0
   11.1807  -13.9479  -14.6291 N   0  0  1  0  0  4  0  0  0  0  0  0
   11.8515  -14.8185  -15.5491 C   0  0  0  0  0  0  0  0  0  0  0  0
   11.0457  -15.0205  -16.8543 C   0  0  0  0  0  0  0  0  0  0  0  0
   10.0857  -13.1983  -15.1633 C   0  0  0  0  0  0  0  0  0  0  0  0
    9.0715  -13.9807  -15.9381 C   0  0  0  0  0  0  0  0  0  0  0  0
    9.6530  -15.2866  -16.4383 C   0  0  1  0  0  0  0  0  0  0  0  0
    8.8114  -16.0393  -17.2926 N   0  0  0  0  0  0  0  0  0  0  0  0
    7.9377  -15.6195  -18.2393 C   0  0  0  0  0  0  0  0  0  0  0  0
    7.5628  -14.3736  -18.6962 C   0  0  0  0  0  0  0  0  0  0  0  0
    8.7666  -17.4169  -17.2756 C   0  0  0  0  0  0  0  0  0  0  0  0
    9.4488  -18.1531  -16.5168 O   0  0  0  0  0  0  0  0  0  0  0  0
    7.9011  -17.8715  -18.1730 N   0  0  0  0  0  0  0  0  0  0  0  0
    7.5915  -19.2631  -18.4363 C   0  0  0  0  0  0  0  0  0  0  0  0
    7.3775  -16.7772  -18.7801 C   0  0  0  0  0  0  0  0  0  0  0  0
    6.4334  -16.7105  -19.7864 C   0  0  0  0  0  0  0  0  0  0  0  0
    6.0670  -15.4498  -20.2351 C   0  0  0  0  0  0  0  0  0  0  0  0
    6.6213  -14.3080  -19.6998 C   0  0  0  0  0  0  0  0  0  0  0  0
    6.2135  -13.0474  -20.1951 N   0  0  0  0  0  0  0  0  0  0  0  0
    5.6470  -12.1069  -19.2660 C   0  0  0  0  0  0  0  0  0  0  0  0
    5.6191  -12.4112  -18.0498 O   0  0  0  0  0  0  0  0  0  0  0  0
    5.1142  -10.8233  -19.7260 C   0  0  0  0  0  0  0  0  0  0  0  0
    3.8041  -10.5497  -19.0234 C   0  0  0  0  0  0  0  0  0  0  0  0
  1  2  2  0
  1  6  1  0
  2  3  1  0
  3  4  2  0
  4  5  1  0
  5  6  2  0
  6  7  1  0
  7  8  2  0
  7 17  1  0
  8  9  1  0
  9 10  1  0
  9 15  2  0
 10 11  2  0
 10 12  1  0
 12 13  2  0
 13 14  1  0
 14 15  1  0
 15 16  1  0
 16 17  2  0
 17 18  1  0
 18 19  2  0
 18 21  1  0
 19 20  1  0
 20 23  2  0
 21 22  2  0
 22 23  1  0
 23 24  1  0
 25 24  1  1
 25 26  1  0
 25 28  1  0
 26 27  1  0
 27 30  1  0
 28 29  1  0
 29 30  1  0
 30 31  1  6
 31 32  1  0
 31 34  1  0
 32 33  2  0
 32 38  1  0
 33 41  1  0
 34 35  2  0
 34 36  1  0
 36 37  1  0
 36 38  1  0
 38 39  2  0
 39 40  1  0
 40 41  2  0
 41 42  1  0
 42 43  1  0
 43 44  2  0
 43 45  1  0
 45 46  1  0
M  CHG  1  25   1
M  END
$$$$
