
     RDKit          3D

 46 52  0  0  0  0  0  0  0  0999 V2000
   15.0799  -11.7305   -7.8171 C   0  0  0  0  0  0  0  0  0  0  0  0
   14.6302  -10.4736   -8.1663 C   0  0  0  0  0  0  0  0  0  0  0  0
   14.8987   -9.9212   -9.3995 C   0  0  0  0  0  0  0  0  0  0  0  0
   15.6445  -10.6805  -10.2862 C   0  0  0  0  0  0  0  0  0  0  0  0
   16.0869  -11.9322   -9.9256 C   0  0  0  0  0  0  0  0  0  0  0  0
   15.8226  -12.4895   -8.6974 C   0  0  0  0  0  0  0  0  0  0  0  0
   16.2651  -13.8062   -8.2663 C   0  0  0  0  0  0  0  0  0  0  0  0
   16.9772  -14.0045   -7.1018 C   0  0  0  0  0  0  0  0  0  0  0  0
   17.3674  -15.2886   -6.7484 C   0  0  0  0  0  0  0  0  0  0  0  0
   18.1218  -15.5321   -5.5230 C   0  0  0  0  0  0  0  0  0  0  0  0
   18.3851  -14.4990   -4.8244 O   0  0  0  0  0  0  0  0  0  0  0  0
   18.5383  -16.8283   -5.1280 N   0  0  0  0  0  0  0  0  0  0  0  0
   18.2383  -17.8266   -5.8808 C   0  0  0  0  0  0  0  0  0  0  0  0
   17.4936  -17.7740   -7.1362 C   0  0  0  0  0  0  0  0  0  0  0  0
   17.0783  -16.4004   -7.5099 C   0  0  0  0  0  0  0  0  0  0  0  0
   16.3761  -16.1714   -8.6498 N   0  0  0  0  0  0  0  0  0  0  0  0
   15.9864  -14.9384   -9.0149 C   0  0  0  0  0  0  0  0  0  0  0  0
   15.2263  -14.7072  -10.2593 C   0  0  0  0  0  0  0  0  0  0  0  0
   15.7020  -15.1943  -11.4624 C   0  0  0  0  0  0  0  0  0  0  0  0
   14.9929  -14.9840  -12.6511 C   0  0  0  0  0  0  0  0  0  0  0  0
   14.0535  -14.0182  -10.2541 C   0  0  0  0  0  0  0  0  0  0  0  0
   13.3635  -13.8166  -11.4287 C   0  0  0  0  0  0  0  0  0  0  0  0
   13.8047  -14.2865  -12.6480 C   0  0  0  0  0  0  0  0  0  0  0  0
   13.0015  -14.0293  -13.8430 C   0  0  0  0  0  0  0  0  0  0  0  0
   11.6030  -13.8512  -13.6150 N   0  0  1  0  0  4  0  0  0  0  0  0
   11.0242  -13.1277  -14.7085 C   0  0  0  0  0  0  0  0  0  0  0  0
    9.9301  -13.9454  -15.4350 C   0  0  0  0  0  0  0  0  0  0  0  0
   10.8977  -15.0238  -13.1984 C   0  0  0  0  0  0  0  0  0  0  0  0
   10.5193  -15.9820  -14.2846 C   0  0  0  0  0  0  0  0  0  0  0  0
   10.4941  -15.2965  -15.6349 C   0  0  1  0  0  0  0  0  0  0  0  0
   10.0211  -16.0877  -16.7097 N   0  0  0  0  0  0  0  0  0  0  0  0
    8.7618  -16.2404  -17.1856 C   0  0  0  0  0  0  0  0  0  0  0  0
    7.5408  -15.7138  -16.8203 C   0  0  0  0  0  0  0  0  0  0  0  0
   10.8495  -16.8728  -17.4826 C   0  0  0  0  0  0  0  0  0  0  0  0
   12.0937  -16.9806  -17.3291 O   0  0  0  0  0  0  0  0  0  0  0  0
   10.1573  -17.5077  -18.4202 N   0  0  0  0  0  0  0  0  0  0  0  0
   10.6941  -18.4176  -19.4129 C   0  0  0  0  0  0  0  0  0  0  0  0
    8.8646  -17.1310  -18.2548 C   0  0  0  0  0  0  0  0  0  0  0  0
    7.7501  -17.5106  -18.9774 C   0  0  0  0  0  0  0  0  0  0  0  0
    6.5293  -16.9718  -18.5974 C   0  0  0  0  0  0  0  0  0  0  0  0
    6.4299  -16.0928  -17.5415 C   0  0  0  0  0  0  0  0  0  0  0  0
    5.1610  -15.5716  -17.1969 N   0  0  0  0  0  0  0  0  0  0  0  0
    4.9002  -14.1852  -17.4778 C   0  0  0  0  0  0  0  0  0  0  0  0
    5.7045  -13.5626  -18.2113 O   0  0  0  0  0  0  0  0  0  0  0  0
    3.7245  -13.5134  -16.9217 C   0  0  0  0  0  0  0  0  0  0  0  0
    3.6274  -12.1214  -17.5030 C   0  0  0  0  0  0  0  0  0  0  0  0
  1  2  2  0
  1  6  1  0
  2  3  1  0
  3  4  2  0
  4  5  1  0
  5  6  2  0
  6  7  1  0
  7  8  2  0
  7 17  1  0
  8  9  1  0
  9 10  1  0
  9 15  2  0
 10 11  2  0
 10 12  1  0
 12 13  2  0
 13 14  1  0
 14 15  1  0
 15 16  1  0
 16 17  2  0
 17 18  1  0
 18 19  2  0
 18 21  1  0
 19 20  1  0
 20 23  2  0
 21 22  2  0
 22 23  1  0
 23 24  1  0
 25 24  1  6
 25 26  1  0
 25 28  1  0
 26 27  1  0
 27 30  1  0
 28 29  1  0
 29 30  1  0
 30 31  1  6
 31 32  1  0
 31 34  1  0
 32 33  2  0
 32 38  1  0
 33 41  1  0
 34 35  2  0
 34 36  1  0
 36 37  1  0
 36 38  1  0
 38 39  2  0
 39 40  1  0
 40 41  2  0
 41 42  1  0
 42 43  1  0
 43 44  2  0
 43 45  1  0
 45 46  1  0
M  CHG  1  25   1
M  END
$$$$
