
     RDKit          3D

 79 80  0  0  0  0  0  0  0  0999 V2000
    1.4198   -8.1609   20.7156 C   0  0  0  0  0  0  0  0  0  0  0  0
    1.7073   -9.0712   21.4809 O   0  0  0  0  0  0  0  0  0  0  0  0
    1.7953   -8.1974   19.2569 C   0  0  0  0  0  0  0  0  0  0  0  0
    0.7297   -7.0182   21.0669 N   0  0  0  0  0  0  0  0  0  0  0  0
    0.2555   -6.7591   22.4325 C   0  0  2  0  0  0  0  0  0  0  0  0
   -0.4785   -5.3933   22.4216 C   0  0  0  0  0  0  0  0  0  0  0  0
   -0.1930   -4.4924   21.6294 O   0  0  0  0  0  0  0  0  0  0  0  0
    1.3282   -6.8771   23.5218 C   0  0  0  0  0  0  0  0  0  0  0  0
    0.8208   -6.5438   24.9237 C   0  0  0  0  0  0  0  0  0  0  0  0
    0.2127   -7.7528   25.5746 C   0  0  0  0  0  0  0  0  0  0  0  0
    0.3348   -8.9044   25.1929 O   0  0  0  0  0  0  0  0  0  0  0  0
   -0.5045   -7.4550   26.6740 O   0  0  0  0  0  0  0  0  0  0  0  0
   -1.5332   -5.2973   23.3219 N   0  0  0  0  0  0  0  0  0  0  0  0
   -2.4850   -4.1666   23.2464 C   0  0  2  0  0  0  0  0  0  0  0  0
   -2.6080   -3.6671   24.7261 C   0  0  0  0  0  0  0  0  0  0  0  0
   -2.3083   -4.3867   25.6827 O   0  0  0  0  0  0  0  0  0  0  0  0
   -3.7879   -4.4888   22.4512 C   0  0  2  0  0  0  0  0  0  0  0  0
   -3.4436   -4.8134   20.9696 C   0  0  0  0  0  0  0  0  0  0  0  0
   -4.8075   -3.3401   22.5017 C   0  0  0  0  0  0  0  0  0  0  0  0
   -4.6578   -5.1119   20.0948 C   0  0  0  0  0  0  0  0  0  0  0  0
   -2.9801   -2.3628   24.9240 N   0  0  0  0  0  0  0  0  0  0  0  0
   -3.1729   -1.8312   26.2663 C   0  0  2  0  0  0  0  0  0  0  0  0
   -4.6674   -1.8480   26.6206 C   0  0  0  0  0  0  0  0  0  0  0  0
   -5.3120   -2.8893   26.7291 O   0  0  0  0  0  0  0  0  0  0  0  0
   -2.5759   -0.4256   26.4313 C   0  0  0  0  0  0  0  0  0  0  0  0
   -1.2438   -0.4051   27.1986 C   0  0  0  0  0  0  0  0  0  0  0  0
   -0.5971    0.9791   27.2248 C   0  0  0  0  0  0  0  0  0  0  0  0
    0.2526    1.1614   28.3931 N   0  0  0  0  0  0  0  0  0  0  0  0
    0.7487    0.1140   29.0899 C   0  0  0  0  0  0  0  0  0  0  0  0
    0.5205    0.2637   30.4112 N   0  0  0  0  0  0  0  0  0  0  0  0
    1.3469   -0.9029   28.5911 N   0  0  0  0  0  0  0  0  0  0  0  0
   -5.2306   -0.5996   26.7527 N   0  0  0  0  0  0  0  0  0  0  0  0
   -5.9191   -0.1898   27.9711 C   0  0  2  0  0  0  0  0  0  0  0  0
   -6.3859    1.2569   27.7286 C   0  0  0  0  0  0  0  0  0  0  0  0
   -5.5838    2.1845   27.6641 O   0  0  0  0  0  0  0  0  0  0  0  0
   -4.9751   -0.2572   29.1821 C   0  0  0  0  0  0  0  0  0  0  0  0
   -5.6286   -0.9027   30.4026 C   0  0  0  0  0  0  0  0  0  0  0  0
   -4.6513   -0.9925   31.5749 C   0  0  0  0  0  0  0  0  0  0  0  0
   -5.3719   -1.4612   32.7499 N   0  0  0  0  0  0  0  0  0  0  0  0
   -4.6906   -1.9098   33.8309 C   0  0  0  0  0  0  0  0  0  0  0  0
   -5.3094   -2.9680   34.3924 N   0  0  0  0  0  0  0  0  0  0  0  0
   -3.5912   -1.4208   34.2708 N   0  0  0  0  0  0  0  0  0  0  0  0
   -7.7500    1.4189   27.5951 N   0  0  0  0  0  0  0  0  0  0  0  0
   -8.3629    2.7443   27.5181 C   0  0  2  0  0  0  0  0  0  0  0  0
   -8.3209    3.6147   28.8046 C   0  0  0  0  0  0  0  0  0  0  0  0
   -8.5962    3.0816   29.8881 O   0  0  0  0  0  0  0  0  0  0  0  0
   -9.7743    2.7246   26.8810 C   0  0  1  0  0  0  0  0  0  0  0  0
  -10.4689    1.3803   27.1286 C   0  0  0  0  0  0  0  0  0  0  0  0
  -10.6790    3.8663   27.3390 C   0  0  0  0  0  0  0  0  0  0  0  0
   -7.9175    4.9321   28.7959 N   0  0  0  0  0  0  0  0  0  0  0  0
   -7.9735    5.7285   30.0354 C   0  0  2  0  0  0  0  0  0  0  0  0
   -9.4087    6.2771   30.2588 C   0  0  0  0  0  0  0  0  0  0  0  0
   -9.9258    7.1301   29.5384 O   0  0  0  0  0  0  0  0  0  0  0  0
   -6.9581    6.8428   29.7933 C   0  0  0  0  0  0  0  0  0  0  0  0
   -7.1020    7.1069   28.3008 C   0  0  0  0  0  0  0  0  0  0  0  0
   -7.3534    5.7228   27.7153 C   0  0  0  0  0  0  0  0  0  0  0  0
  -10.0484    5.7464   31.3575 N   0  0  0  0  0  0  0  0  0  0  0  0
  -10.0132    6.3705   32.6724 C   0  0  2  0  0  0  0  0  0  0  0  0
   -9.7771    7.8819   32.4773 C   0  0  0  0  0  0  0  0  0  0  0  0
   -8.6571    8.3835   32.4369 O   0  0  0  0  0  0  0  0  0  0  0  0
   -8.8880    5.7263   33.4871 C   0  0  0  0  0  0  0  0  0  0  0  0
   -8.8402    6.2014   34.9380 C   0  0  0  0  0  0  0  0  0  0  0  0
   -8.9572    5.0461   35.8968 C   0  0  0  0  0  0  0  0  0  0  0  0
  -10.1146    5.0770   36.5832 O   0  0  0  0  0  0  0  0  0  0  0  0
   -8.1570    4.1447   36.0666 O   0  0  0  0  0  0  0  0  0  0  0  0
  -10.9240    8.6388   32.4058 N   0  0  0  0  0  0  0  0  0  0  0  0
  -11.0224    9.9773   33.0073 C   0  0  2  0  0  0  0  0  0  0  0  0
  -11.2583    9.8219   34.5153 C   0  0  0  0  0  0  0  0  0  0  0  0
  -11.3448    8.7860   35.1533 O   0  0  0  0  0  0  0  0  0  0  0  0
  -12.1547   10.8024   32.3718 C   0  0  0  0  0  0  0  0  0  0  0  0
  -12.0339   10.8956   30.8679 C   0  0  0  0  0  0  0  0  0  0  0  0
  -13.0139   11.5686   30.1242 C   0  0  0  0  0  0  0  0  0  0  0  0
  -10.9628   10.2935   30.1939 C   0  0  0  0  0  0  0  0  0  0  0  0
  -12.9237   11.6346   28.7331 C   0  0  0  0  0  0  0  0  0  0  0  0
  -10.8725   10.3646   28.8011 C   0  0  0  0  0  0  0  0  0  0  0  0
  -11.8544   11.0315   28.0722 C   0  0  0  0  0  0  0  0  0  0  0  0
  -11.3772   11.0085   35.1648 O   0  0  0  0  0  0  0  0  0  0  0  0
    0.6751   -1.6515   28.4254 H   0  0  0  0  0  0  0  0  0  0  0  0
   -3.1537   -0.8469   33.5512 H   0  0  0  0  0  0  0  0  0  0  0  0
  1  2  2  0
  1  3  1  0
  1  4  1  0
  4  5  1  0
  5  6  1  0
  5  8  1  1
  6  7  2  0
  6 13  1  0
  8  9  1  0
  9 10  1  0
 10 11  2  0
 10 12  1  0
 14 13  1  1
 14 15  1  0
 14 17  1  0
 15 16  2  0
 15 21  1  0
 17 18  1  0
 17 19  1  6
 18 20  1  0
 21 22  1  0
 22 23  1  0
 22 25  1  6
 23 24  2  0
 23 32  1  0
 25 26  1  0
 26 27  1  0
 27 28  1  0
 28 29  1  0
 29 30  1  0
 29 31  2  0
 32 33  1  0
 33 34  1  0
 33 36  1  1
 34 35  2  0
 34 43  1  0
 36 37  1  0
 37 38  1  0
 38 39  1  0
 39 40  1  0
 40 41  1  0
 40 42  2  0
 44 43  1  1
 44 45  1  0
 44 47  1  0
 45 46  2  0
 45 50  1  0
 47 48  1  1
 47 49  1  0
 50 51  1  0
 50 56  1  0
 51 52  1  6
 51 54  1  0
 52 53  2  0
 52 57  1  0
 54 55  1  0
 55 56  1  0
 57 58  1  0
 58 59  1  0
 58 61  1  1
 59 60  2  0
 59 66  1  0
 61 62  1  0
 62 63  1  0
 63 64  1  0
 63 65  2  0
 66 67  1  0
 67 68  1  0
 67 70  1  6
 68 69  2  0
 68 77  1  0
 70 71  1  0
 71 72  2  0
 71 73  1  0
 72 74  1  0
 73 75  2  0
 74 76  2  0
 75 76  1  0
 31 78  1  0
 42 79  1  0
M  END
$$$$
