
     RDKit          3D

 79 80  0  0  0  0  0  0  0  0999 V2000
    2.0471   -8.0397   25.3080 C   0  0  0  0  0  0  0  0  0  0  0  0
    2.3730   -7.9306   24.1338 O   0  0  0  0  0  0  0  0  0  0  0  0
    2.4319   -9.2398   26.1337 C   0  0  0  0  0  0  0  0  0  0  0  0
    1.3144   -7.1092   26.0170 N   0  0  0  0  0  0  0  0  0  0  0  0
    0.3060   -6.2426   25.3934 C   0  0  2  0  0  0  0  0  0  0  0  0
    0.1319   -4.9982   26.3020 C   0  0  0  0  0  0  0  0  0  0  0  0
    0.0334   -5.0802   27.5285 O   0  0  0  0  0  0  0  0  0  0  0  0
   -1.0131   -6.9392   25.0378 C   0  0  0  0  0  0  0  0  0  0  0  0
   -0.8798   -7.9787   23.9264 C   0  0  0  0  0  0  0  0  0  0  0  0
   -1.1231   -7.3580   22.5807 C   0  0  0  0  0  0  0  0  0  0  0  0
   -1.8090   -6.3735   22.3640 O   0  0  0  0  0  0  0  0  0  0  0  0
   -0.4847   -7.9966   21.5824 O   0  0  0  0  0  0  0  0  0  0  0  0
    0.1754   -3.7821   25.6303 N   0  0  0  0  0  0  0  0  0  0  0  0
   -0.5715   -2.6126   26.1445 C   0  0  2  0  0  0  0  0  0  0  0  0
   -2.0764   -3.0250   26.0054 C   0  0  0  0  0  0  0  0  0  0  0  0
   -2.6083   -3.1833   24.9032 O   0  0  0  0  0  0  0  0  0  0  0  0
   -0.1066   -1.2507   25.5422 C   0  0  2  0  0  0  0  0  0  0  0  0
   -0.3926   -0.0970   26.5452 C   0  0  0  0  0  0  0  0  0  0  0  0
   -0.7821   -0.9410   24.1970 C   0  0  0  0  0  0  0  0  0  0  0  0
    0.7882    0.8423   26.7736 C   0  0  0  0  0  0  0  0  0  0  0  0
   -2.7677   -3.2921   27.1585 N   0  0  0  0  0  0  0  0  0  0  0  0
   -4.0922   -2.7312   27.3880 C   0  0  2  0  0  0  0  0  0  0  0  0
   -4.1017   -1.2465   26.9946 C   0  0  0  0  0  0  0  0  0  0  0  0
   -3.1617   -0.7081   26.4131 O   0  0  0  0  0  0  0  0  0  0  0  0
   -4.5694   -2.9283   28.8348 C   0  0  0  0  0  0  0  0  0  0  0  0
   -3.6064   -3.7616   29.6960 C   0  0  0  0  0  0  0  0  0  0  0  0
   -4.0733   -3.8960   31.1447 C   0  0  0  0  0  0  0  0  0  0  0  0
   -4.8652   -2.7506   31.5703 N   0  0  0  0  0  0  0  0  0  0  0  0
   -4.4036   -1.4833   31.4732 C   0  0  0  0  0  0  0  0  0  0  0  0
   -3.6783   -1.1506   32.5611 N   0  0  0  0  0  0  0  0  0  0  0  0
   -4.5999   -0.6868   30.4894 N   0  0  0  0  0  0  0  0  0  0  0  0
   -5.2264   -0.5630   27.3956 N   0  0  0  0  0  0  0  0  0  0  0  0
   -6.0908    0.1246   26.4435 C   0  0  2  0  0  0  0  0  0  0  0  0
   -7.2957    0.6337   27.2550 C   0  0  0  0  0  0  0  0  0  0  0  0
   -8.4247    0.1872   27.0703 O   0  0  0  0  0  0  0  0  0  0  0  0
   -6.5526   -0.8327   25.3333 C   0  0  0  0  0  0  0  0  0  0  0  0
   -7.4953   -0.1645   24.3342 C   0  0  0  0  0  0  0  0  0  0  0  0
   -6.7205    0.4914   23.1910 C   0  0  0  0  0  0  0  0  0  0  0  0
   -7.6430    1.2939   22.4006 N   0  0  0  0  0  0  0  0  0  0  0  0
   -7.9977    0.8937   21.1564 C   0  0  0  0  0  0  0  0  0  0  0  0
   -6.9141    0.5806   20.4176 N   0  0  0  0  0  0  0  0  0  0  0  0
   -9.1990    0.7996   20.7212 N   0  0  0  0  0  0  0  0  0  0  0  0
   -7.0064    1.6127   28.1839 N   0  0  0  0  0  0  0  0  0  0  0  0
   -7.9949    2.0575   29.1653 C   0  0  2  0  0  0  0  0  0  0  0  0
   -8.3591    3.5680   29.1620 C   0  0  0  0  0  0  0  0  0  0  0  0
   -7.4557    4.3934   28.9711 O   0  0  0  0  0  0  0  0  0  0  0  0
   -7.7079    1.5365   30.5952 C   0  0  1  0  0  0  0  0  0  0  0  0
   -8.8196    1.9551   31.5647 C   0  0  0  0  0  0  0  0  0  0  0  0
   -7.4934    0.0267   30.6751 C   0  0  0  0  0  0  0  0  0  0  0  0
   -9.6551    4.0187   29.2875 N   0  0  0  0  0  0  0  0  0  0  0  0
   -9.9484    5.4595   29.1790 C   0  0  2  0  0  0  0  0  0  0  0  0
   -9.6803    6.1673   30.5347 C   0  0  0  0  0  0  0  0  0  0  0  0
   -9.8898    5.6387   31.6259 O   0  0  0  0  0  0  0  0  0  0  0  0
  -11.4234    5.4979   28.7867 C   0  0  0  0  0  0  0  0  0  0  0  0
  -11.9995    4.3047   29.5368 C   0  0  0  0  0  0  0  0  0  0  0  0
  -10.8855    3.2673   29.4678 C   0  0  0  0  0  0  0  0  0  0  0  0
   -9.2132    7.4575   30.4122 N   0  0  0  0  0  0  0  0  0  0  0  0
   -9.2133    8.4080   31.5151 C   0  0  2  0  0  0  0  0  0  0  0  0
  -10.3729    9.3995   31.2906 C   0  0  0  0  0  0  0  0  0  0  0  0
  -10.7906    9.6977   30.1751 O   0  0  0  0  0  0  0  0  0  0  0  0
   -7.8594    9.1230   31.5416 C   0  0  0  0  0  0  0  0  0  0  0  0
   -6.6696    8.1676   31.6131 C   0  0  0  0  0  0  0  0  0  0  0  0
   -5.6975    8.5829   32.6857 C   0  0  0  0  0  0  0  0  0  0  0  0
   -4.7715    9.4417   32.2203 O   0  0  0  0  0  0  0  0  0  0  0  0
   -5.7010    8.2451   33.8550 O   0  0  0  0  0  0  0  0  0  0  0  0
  -10.8720    9.9704   32.4388 N   0  0  0  0  0  0  0  0  0  0  0  0
  -10.0313   10.7506   33.3595 C   0  0  2  0  0  0  0  0  0  0  0  0
  -10.8830   11.1726   34.5639 C   0  0  0  0  0  0  0  0  0  0  0  0
  -10.5536   11.8871   35.4959 O   0  0  0  0  0  0  0  0  0  0  0  0
   -9.4320   11.9880   32.6692 C   0  0  0  0  0  0  0  0  0  0  0  0
   -7.9474   12.1300   32.9151 C   0  0  0  0  0  0  0  0  0  0  0  0
   -7.2279   13.1628   32.2968 C   0  0  0  0  0  0  0  0  0  0  0  0
   -7.2649   11.2237   33.7378 C   0  0  0  0  0  0  0  0  0  0  0  0
   -5.8521   13.2833   32.4969 C   0  0  0  0  0  0  0  0  0  0  0  0
   -5.8877   11.3491   33.9399 C   0  0  0  0  0  0  0  0  0  0  0  0
   -5.1824   12.3759   33.3167 C   0  0  0  0  0  0  0  0  0  0  0  0
  -12.1408   10.6615   34.5370 O   0  0  0  0  0  0  0  0  0  0  0  0
   -4.5452    0.2790   30.8111 H   0  0  0  0  0  0  0  0  0  0  0  0
   -9.8573    1.0086   21.4706 H   0  0  0  0  0  0  0  0  0  0  0  0
  1  2  2  0
  1  3  1  0
  1  4  1  0
  4  5  1  0
  5  6  1  0
  5  8  1  1
  6  7  2  0
  6 13  1  0
  8  9  1  0
  9 10  1  0
 10 11  2  0
 10 12  1  0
 14 13  1  6
 14 15  1  0
 14 17  1  0
 15 16  2  0
 15 21  1  0
 17 18  1  0
 17 19  1  6
 18 20  1  0
 21 22  1  0
 22 23  1  0
 22 25  1  1
 23 24  2  0
 23 32  1  0
 25 26  1  0
 26 27  1  0
 27 28  1  0
 28 29  1  0
 29 30  1  0
 29 31  2  0
 32 33  1  0
 33 34  1  0
 33 36  1  6
 34 35  2  0
 34 43  1  0
 36 37  1  0
 37 38  1  0
 38 39  1  0
 39 40  1  0
 40 41  1  0
 40 42  2  0
 44 43  1  6
 44 45  1  0
 44 47  1  0
 45 46  2  0
 45 50  1  0
 47 48  1  1
 47 49  1  0
 50 51  1  0
 50 56  1  0
 51 52  1  1
 51 54  1  0
 52 53  2  0
 52 57  1  0
 54 55  1  0
 55 56  1  0
 57 58  1  0
 58 59  1  0
 58 61  1  6
 59 60  2  0
 59 66  1  0
 61 62  1  0
 62 63  1  0
 63 64  1  0
 63 65  2  0
 66 67  1  0
 67 68  1  0
 67 70  1  6
 68 69  2  0
 68 77  1  0
 70 71  1  0
 71 72  2  0
 71 73  1  0
 72 74  1  0
 73 75  2  0
 74 76  2  0
 75 76  1  0
 31 78  1  0
 42 79  1  0
M  END
$$$$
