
     RDKit          3D

 79 80  0  0  0  0  0  0  0  0999 V2000
   -0.1125   -8.2520   24.8596 C   0  0  0  0  0  0  0  0  0  0  0  0
    0.3056   -8.6198   25.9490 O   0  0  0  0  0  0  0  0  0  0  0  0
    0.0552   -9.0885   23.6177 C   0  0  0  0  0  0  0  0  0  0  0  0
   -0.7787   -7.0659   24.6256 N   0  0  0  0  0  0  0  0  0  0  0  0
   -0.8428   -5.9778   25.6098 C   0  0  2  0  0  0  0  0  0  0  0  0
   -1.7512   -4.8674   25.0212 C   0  0  0  0  0  0  0  0  0  0  0  0
   -1.3292   -4.0055   24.2468 O   0  0  0  0  0  0  0  0  0  0  0  0
    0.5184   -5.4692   26.0998 C   0  0  0  0  0  0  0  0  0  0  0  0
    0.6204   -5.3516   27.6195 C   0  0  0  0  0  0  0  0  0  0  0  0
    0.3732   -6.6789   28.2772 C   0  0  0  0  0  0  0  0  0  0  0  0
    0.9973   -7.7051   28.0670 O   0  0  0  0  0  0  0  0  0  0  0  0
   -0.6332   -6.6453   29.1703 O   0  0  0  0  0  0  0  0  0  0  0  0
   -3.0916   -4.9703   25.3745 N   0  0  0  0  0  0  0  0  0  0  0  0
   -4.0645   -3.9440   24.9383 C   0  0  2  0  0  0  0  0  0  0  0  0
   -3.7786   -2.7200   25.8734 C   0  0  0  0  0  0  0  0  0  0  0  0
   -3.4642   -2.8656   27.0577 O   0  0  0  0  0  0  0  0  0  0  0  0
   -5.5277   -4.4710   24.8165 C   0  0  2  0  0  0  0  0  0  0  0  0
   -6.4445   -3.3689   24.2132 C   0  0  0  0  0  0  0  0  0  0  0  0
   -6.1007   -4.9341   26.1652 C   0  0  0  0  0  0  0  0  0  0  0  0
   -7.9025   -3.7877   24.0479 C   0  0  0  0  0  0  0  0  0  0  0  0
   -3.8039   -1.4722   25.3066 N   0  0  0  0  0  0  0  0  0  0  0  0
   -3.7510   -0.2714   26.1294 C   0  0  2  0  0  0  0  0  0  0  0  0
   -5.1192   -0.0317   26.7849 C   0  0  0  0  0  0  0  0  0  0  0  0
   -6.1806   -0.2272   26.1960 O   0  0  0  0  0  0  0  0  0  0  0  0
   -3.2875    0.9610   25.3383 C   0  0  0  0  0  0  0  0  0  0  0  0
   -1.7785    0.9764   25.0446 C   0  0  0  0  0  0  0  0  0  0  0  0
   -0.9606    1.5897   26.1803 C   0  0  0  0  0  0  0  0  0  0  0  0
   -1.2370    3.0097   26.3455 N   0  0  0  0  0  0  0  0  0  0  0  0
   -1.4779    3.8212   25.2909 C   0  0  0  0  0  0  0  0  0  0  0  0
   -2.7322    4.3155   25.3407 N   0  0  0  0  0  0  0  0  0  0  0  0
   -0.6449    4.1114   24.3621 N   0  0  0  0  0  0  0  0  0  0  0  0
   -5.0525    0.4694   28.0645 N   0  0  0  0  0  0  0  0  0  0  0  0
   -6.2271    0.9999   28.7467 C   0  0  2  0  0  0  0  0  0  0  0  0
   -6.2712    2.5014   28.4104 C   0  0  0  0  0  0  0  0  0  0  0  0
   -5.7285    2.9464   27.4027 O   0  0  0  0  0  0  0  0  0  0  0  0
   -6.1197    0.7891   30.2653 C   0  0  0  0  0  0  0  0  0  0  0  0
   -7.4569    0.9713   30.9809 C   0  0  0  0  0  0  0  0  0  0  0  0
   -7.2991    0.8437   32.4963 C   0  0  0  0  0  0  0  0  0  0  0  0
   -8.5952    1.0638   33.1218 N   0  0  0  0  0  0  0  0  0  0  0  0
   -9.4061    0.0136   33.3927 C   0  0  0  0  0  0  0  0  0  0  0  0
  -10.2378   -0.2387   32.3619 N   0  0  0  0  0  0  0  0  0  0  0  0
   -9.3915   -0.6764   34.4721 N   0  0  0  0  0  0  0  0  0  0  0  0
   -6.9543    3.2862   29.3171 N   0  0  0  0  0  0  0  0  0  0  0  0
   -7.9093    4.3060   28.8853 C   0  0  2  0  0  0  0  0  0  0  0  0
   -8.5535    5.1815   29.9956 C   0  0  0  0  0  0  0  0  0  0  0  0
   -9.4751    4.6995   30.6680 O   0  0  0  0  0  0  0  0  0  0  0  0
   -8.9662    3.7658   27.8906 C   0  0  1  0  0  0  0  0  0  0  0  0
  -10.0404    4.8219   27.6049 C   0  0  0  0  0  0  0  0  0  0  0  0
   -8.3794    3.2561   26.5762 C   0  0  0  0  0  0  0  0  0  0  0  0
   -8.0903    6.4407   30.3094 N   0  0  0  0  0  0  0  0  0  0  0  0
   -8.2525    6.9662   31.6773 C   0  0  2  0  0  0  0  0  0  0  0  0
   -9.6765    7.5566   31.8622 C   0  0  0  0  0  0  0  0  0  0  0  0
  -10.2857    8.1439   30.9689 O   0  0  0  0  0  0  0  0  0  0  0  0
   -7.1646    8.0321   31.7845 C   0  0  0  0  0  0  0  0  0  0  0  0
   -7.1214    8.6079   30.3757 C   0  0  0  0  0  0  0  0  0  0  0  0
   -7.3679    7.3955   29.4862 C   0  0  0  0  0  0  0  0  0  0  0  0
  -10.1925    7.3929   33.1290 N   0  0  0  0  0  0  0  0  0  0  0  0
  -11.4956    7.9067   33.5260 C   0  0  2  0  0  0  0  0  0  0  0  0
  -11.3781    9.4365   33.6817 C   0  0  0  0  0  0  0  0  0  0  0  0
  -11.8994   10.0562   34.6047 O   0  0  0  0  0  0  0  0  0  0  0  0
  -11.9026    7.2373   34.8417 C   0  0  0  0  0  0  0  0  0  0  0  0
  -12.5999    5.8921   34.6481 C   0  0  0  0  0  0  0  0  0  0  0  0
  -12.9380    5.2552   35.9702 C   0  0  0  0  0  0  0  0  0  0  0  0
  -13.5908    6.1044   36.7855 O   0  0  0  0  0  0  0  0  0  0  0  0
  -12.7045    4.1130   36.3197 O   0  0  0  0  0  0  0  0  0  0  0  0
  -10.6866   10.0660   32.6724 N   0  0  0  0  0  0  0  0  0  0  0  0
  -10.5093   11.5255   32.6311 C   0  0  2  0  0  0  0  0  0  0  0  0
  -10.9009   12.0285   31.2356 C   0  0  0  0  0  0  0  0  0  0  0  0
  -10.6837   11.4923   30.1620 O   0  0  0  0  0  0  0  0  0  0  0  0
   -9.0615   11.9300   32.9580 C   0  0  0  0  0  0  0  0  0  0  0  0
   -8.7352   11.7896   34.4272 C   0  0  0  0  0  0  0  0  0  0  0  0
   -8.0707   10.6462   34.8938 C   0  0  0  0  0  0  0  0  0  0  0  0
   -9.1112   12.7797   35.3451 C   0  0  0  0  0  0  0  0  0  0  0  0
   -7.7911   10.4970   36.2529 C   0  0  0  0  0  0  0  0  0  0  0  0
   -8.8263   12.6297   36.7050 C   0  0  0  0  0  0  0  0  0  0  0  0
   -8.1702   11.4875   37.1578 C   0  0  0  0  0  0  0  0  0  0  0  0
  -11.5640   13.2133   31.2590 O   0  0  0  0  0  0  0  0  0  0  0  0
   -0.6303    5.1199   24.2143 H   0  0  0  0  0  0  0  0  0  0  0  0
   -8.6048   -1.3242   34.4597 H   0  0  0  0  0  0  0  0  0  0  0  0
  1  2  2  0
  1  3  1  0
  1  4  1  0
  4  5  1  0
  5  6  1  0
  5  8  1  6
  6  7  2  0
  6 13  1  0
  8  9  1  0
  9 10  1  0
 10 11  2  0
 10 12  1  0
 14 13  1  1
 14 15  1  0
 14 17  1  0
 15 16  2  0
 15 21  1  0
 17 18  1  0
 17 19  1  1
 18 20  1  0
 21 22  1  0
 22 23  1  0
 22 25  1  6
 23 24  2  0
 23 32  1  0
 25 26  1  0
 26 27  1  0
 27 28  1  0
 28 29  1  0
 29 30  1  0
 29 31  2  0
 32 33  1  0
 33 34  1  0
 33 36  1  1
 34 35  2  0
 34 43  1  0
 36 37  1  0
 37 38  1  0
 38 39  1  0
 39 40  1  0
 40 41  1  0
 40 42  2  0
 44 43  1  1
 44 45  1  0
 44 47  1  0
 45 46  2  0
 45 50  1  0
 47 48  1  6
 47 49  1  0
 50 51  1  0
 50 56  1  0
 51 52  1  6
 51 54  1  0
 52 53  2  0
 52 57  1  0
 54 55  1  0
 55 56  1  0
 57 58  1  0
 58 59  1  0
 58 61  1  1
 59 60  2  0
 59 66  1  0
 61 62  1  0
 62 63  1  0
 63 64  1  0
 63 65  2  0
 66 67  1  0
 67 68  1  0
 67 70  1  6
 68 69  2  0
 68 77  1  0
 70 71  1  0
 71 72  2  0
 71 73  1  0
 72 74  1  0
 73 75  2  0
 74 76  2  0
 75 76  1  0
 31 78  1  0
 42 79  1  0
M  END
$$$$
