
     RDKit          3D

 79 80  0  0  0  0  0  0  0  0999 V2000
    3.0314   -7.9711   26.0576 C   0  0  0  0  0  0  0  0  0  0  0  0
    4.1022   -7.5851   26.5063 O   0  0  0  0  0  0  0  0  0  0  0  0
    2.4955   -9.3489   26.3486 C   0  0  0  0  0  0  0  0  0  0  0  0
    2.1914   -7.2232   25.2575 N   0  0  0  0  0  0  0  0  0  0  0  0
    1.7409   -5.8718   25.6150 C   0  0  2  0  0  0  0  0  0  0  0  0
    0.3754   -5.6345   24.9197 C   0  0  0  0  0  0  0  0  0  0  0  0
    0.2580   -5.5625   23.6942 O   0  0  0  0  0  0  0  0  0  0  0  0
    2.7668   -4.7608   25.3607 C   0  0  0  0  0  0  0  0  0  0  0  0
    2.2822   -3.3707   25.7689 C   0  0  0  0  0  0  0  0  0  0  0  0
    3.2812   -2.3194   25.3789 C   0  0  0  0  0  0  0  0  0  0  0  0
    4.4462   -2.5199   25.0800 O   0  0  0  0  0  0  0  0  0  0  0  0
    2.7636   -1.0768   25.3729 O   0  0  0  0  0  0  0  0  0  0  0  0
   -0.7124   -5.5888   25.7837 N   0  0  0  0  0  0  0  0  0  0  0  0
   -2.0797   -5.3745   25.2597 C   0  0  2  0  0  0  0  0  0  0  0  0
   -2.4628   -3.9396   25.7583 C   0  0  0  0  0  0  0  0  0  0  0  0
   -2.2209   -3.5645   26.9087 O   0  0  0  0  0  0  0  0  0  0  0  0
   -3.0584   -6.5553   25.5447 C   0  0  2  0  0  0  0  0  0  0  0  0
   -2.4595   -7.8873   25.0096 C   0  0  0  0  0  0  0  0  0  0  0  0
   -4.4471   -6.3314   24.9256 C   0  0  0  0  0  0  0  0  0  0  0  0
   -2.8459   -9.1196   25.8224 C   0  0  0  0  0  0  0  0  0  0  0  0
   -3.0023   -3.0751   24.8415 N   0  0  0  0  0  0  0  0  0  0  0  0
   -3.9060   -2.0097   25.2537 C   0  0  2  0  0  0  0  0  0  0  0  0
   -5.1956   -2.6166   25.8262 C   0  0  0  0  0  0  0  0  0  0  0  0
   -5.3170   -3.8175   26.0599 O   0  0  0  0  0  0  0  0  0  0  0  0
   -4.2103   -1.0257   24.1141 C   0  0  0  0  0  0  0  0  0  0  0  0
   -5.6350   -1.1527   23.5505 C   0  0  0  0  0  0  0  0  0  0  0  0
   -5.7049   -2.0481   22.3142 C   0  0  0  0  0  0  0  0  0  0  0  0
   -6.7549   -1.6290   21.3967 N   0  0  0  0  0  0  0  0  0  0  0  0
   -6.4874   -0.9248   20.2736 C   0  0  0  0  0  0  0  0  0  0  0  0
   -5.5094   -0.0217   20.4934 N   0  0  0  0  0  0  0  0  0  0  0  0
   -7.0580   -1.0798   19.1373 N   0  0  0  0  0  0  0  0  0  0  0  0
   -6.2160   -1.7108   26.0033 N   0  0  0  0  0  0  0  0  0  0  0  0
   -6.3420   -0.9204   27.2223 C   0  0  2  0  0  0  0  0  0  0  0  0
   -7.0561    0.3803   26.8128 C   0  0  0  0  0  0  0  0  0  0  0  0
   -7.2764    0.6440   25.6338 O   0  0  0  0  0  0  0  0  0  0  0  0
   -4.9599   -0.6130   27.8204 C   0  0  0  0  0  0  0  0  0  0  0  0
   -4.9966   -0.4613   29.3399 C   0  0  0  0  0  0  0  0  0  0  0  0
   -6.3660    0.0221   29.8181 C   0  0  0  0  0  0  0  0  0  0  0  0
   -6.1996    0.7191   31.0854 N   0  0  0  0  0  0  0  0  0  0  0  0
   -7.2780    1.2264   31.7286 C   0  0  0  0  0  0  0  0  0  0  0  0
   -8.4231    0.8867   31.1031 N   0  0  0  0  0  0  0  0  0  0  0  0
   -7.2413    1.9252   32.8018 N   0  0  0  0  0  0  0  0  0  0  0  0
   -7.4170    1.2059   27.8582 N   0  0  0  0  0  0  0  0  0  0  0  0
   -8.0638    2.4974   27.6301 C   0  0  2  0  0  0  0  0  0  0  0  0
   -8.2890    3.4009   28.8739 C   0  0  0  0  0  0  0  0  0  0  0  0
   -8.6344    2.8676   29.9370 O   0  0  0  0  0  0  0  0  0  0  0  0
   -9.3374    2.3925   26.7552 C   0  0  1  0  0  0  0  0  0  0  0  0
   -9.9851    3.7687   26.5626 C   0  0  0  0  0  0  0  0  0  0  0  0
   -9.1055    1.7353   25.3964 C   0  0  0  0  0  0  0  0  0  0  0  0
   -8.0469    4.7572   28.8590 N   0  0  0  0  0  0  0  0  0  0  0  0
   -7.7664    5.4700   30.1188 C   0  0  2  0  0  0  0  0  0  0  0  0
   -9.0925    5.8192   30.8468 C   0  0  0  0  0  0  0  0  0  0  0  0
  -10.1042    6.2029   30.2609 O   0  0  0  0  0  0  0  0  0  0  0  0
   -7.0080    6.7155   29.6663 C   0  0  0  0  0  0  0  0  0  0  0  0
   -7.6674    7.0419   28.3333 C   0  0  0  0  0  0  0  0  0  0  0  0
   -7.9586    5.6717   27.7334 C   0  0  0  0  0  0  0  0  0  0  0  0
   -9.0317    5.6914   32.2172 N   0  0  0  0  0  0  0  0  0  0  0  0
   -9.7799    6.5475   33.1265 C   0  0  2  0  0  0  0  0  0  0  0  0
  -10.0694    7.8770   32.4007 C   0  0  0  0  0  0  0  0  0  0  0  0
   -9.3162    8.3557   31.5574 O   0  0  0  0  0  0  0  0  0  0  0  0
   -8.9414    6.7671   34.3889 C   0  0  0  0  0  0  0  0  0  0  0  0
   -8.6300    5.4758   35.1431 C   0  0  0  0  0  0  0  0  0  0  0  0
   -7.3770    4.8246   34.6200 C   0  0  0  0  0  0  0  0  0  0  0  0
   -6.9378    5.4126   33.4916 O   0  0  0  0  0  0  0  0  0  0  0  0
   -6.7670    3.8951   35.1153 O   0  0  0  0  0  0  0  0  0  0  0  0
  -11.2155    8.5185   32.8108 N   0  0  0  0  0  0  0  0  0  0  0  0
  -12.1496    9.1441   31.8626 C   0  0  2  0  0  0  0  0  0  0  0  0
  -13.1111    8.0693   31.3389 C   0  0  0  0  0  0  0  0  0  0  0  0
  -13.0242    6.8606   31.4767 O   0  0  0  0  0  0  0  0  0  0  0  0
  -11.4069    9.8123   30.6927 C   0  0  0  0  0  0  0  0  0  0  0  0
  -10.1444   10.5181   31.1316 C   0  0  0  0  0  0  0  0  0  0  0  0
   -9.2086   10.9434   30.1776 C   0  0  0  0  0  0  0  0  0  0  0  0
   -9.8769   10.7347   32.4902 C   0  0  0  0  0  0  0  0  0  0  0  0
   -8.0277   11.5707   30.5772 C   0  0  0  0  0  0  0  0  0  0  0  0
   -8.6955   11.3669   32.8875 C   0  0  0  0  0  0  0  0  0  0  0  0
   -7.7709   11.7806   31.9314 C   0  0  0  0  0  0  0  0  0  0  0  0
  -14.1628    8.5807   30.6487 O   0  0  0  0  0  0  0  0  0  0  0  0
   -7.4281   -0.1872   18.8125 H   0  0  0  0  0  0  0  0  0  0  0  0
   -7.7460    1.4455   33.5460 H   0  0  0  0  0  0  0  0  0  0  0  0
  1  2  2  0
  1  3  1  0
  1  4  1  0
  4  5  1  0
  5  6  1  0
  5  8  1  6
  6  7  2  0
  6 13  1  0
  8  9  1  0
  9 10  1  0
 10 11  2  0
 10 12  1  0
 14 13  1  1
 14 15  1  0
 14 17  1  0
 15 16  2  0
 15 21  1  0
 17 18  1  0
 17 19  1  6
 18 20  1  0
 21 22  1  0
 22 23  1  0
 22 25  1  6
 23 24  2  0
 23 32  1  0
 25 26  1  0
 26 27  1  0
 27 28  1  0
 28 29  1  0
 29 30  1  0
 29 31  2  0
 32 33  1  0
 33 34  1  0
 33 36  1  6
 34 35  2  0
 34 43  1  0
 36 37  1  0
 37 38  1  0
 38 39  1  0
 39 40  1  0
 40 41  1  0
 40 42  2  0
 44 43  1  1
 44 45  1  0
 44 47  1  0
 45 46  2  0
 45 50  1  0
 47 48  1  6
 47 49  1  0
 50 51  1  0
 50 56  1  0
 51 52  1  6
 51 54  1  0
 52 53  2  0
 52 57  1  0
 54 55  1  0
 55 56  1  0
 57 58  1  0
 58 59  1  0
 58 61  1  1
 59 60  2  0
 59 66  1  0
 61 62  1  0
 62 63  1  0
 63 64  1  0
 63 65  2  0
 66 67  1  0
 67 68  1  0
 67 70  1  6
 68 69  2  0
 68 77  1  0
 70 71  1  0
 71 72  2  0
 71 73  1  0
 72 74  1  0
 73 75  2  0
 74 76  2  0
 75 76  1  0
 31 78  1  0
 42 79  1  0
M  END
$$$$
