
     RDKit          3D

 79 80  0  0  0  0  0  0  0  0999 V2000
   -5.0257   -7.9605   27.9596 C   0  0  0  0  0  0  0  0  0  0  0  0
   -4.2108   -7.8526   28.8658 O   0  0  0  0  0  0  0  0  0  0  0  0
   -6.1371   -8.9768   28.0040 C   0  0  0  0  0  0  0  0  0  0  0  0
   -5.0449   -7.1893   26.8149 N   0  0  0  0  0  0  0  0  0  0  0  0
   -4.0862   -6.1051   26.5656 C   0  0  2  0  0  0  0  0  0  0  0  0
   -4.8187   -5.0123   25.7448 C   0  0  0  0  0  0  0  0  0  0  0  0
   -5.8392   -5.2443   25.0924 O   0  0  0  0  0  0  0  0  0  0  0  0
   -2.7528   -6.5504   25.9530 C   0  0  0  0  0  0  0  0  0  0  0  0
   -1.9145   -5.3989   25.4007 C   0  0  0  0  0  0  0  0  0  0  0  0
   -0.6031   -5.8993   24.8667 C   0  0  0  0  0  0  0  0  0  0  0  0
    0.2512   -5.2191   24.3243 O   0  0  0  0  0  0  0  0  0  0  0  0
   -0.4283   -7.2211   25.0520 O   0  0  0  0  0  0  0  0  0  0  0  0
   -4.2778   -3.7379   25.8678 N   0  0  0  0  0  0  0  0  0  0  0  0
   -5.0478   -2.6544   26.5183 C   0  0  2  0  0  0  0  0  0  0  0  0
   -4.3334   -2.4485   27.8973 C   0  0  0  0  0  0  0  0  0  0  0  0
   -4.0815   -3.3955   28.6472 O   0  0  0  0  0  0  0  0  0  0  0  0
   -6.5919   -2.8755   26.4974 C   0  0  2  0  0  0  0  0  0  0  0  0
   -7.0272   -3.4786   25.1315 C   0  0  0  0  0  0  0  0  0  0  0  0
   -7.3756   -1.5798   26.7599 C   0  0  0  0  0  0  0  0  0  0  0  0
   -8.3748   -4.1939   25.1631 C   0  0  0  0  0  0  0  0  0  0  0  0
   -3.9146   -1.1811   28.2091 N   0  0  0  0  0  0  0  0  0  0  0  0
   -2.7222   -0.6112   27.5966 C   0  0  2  0  0  0  0  0  0  0  0  0
   -2.8838    0.9106   27.4656 C   0  0  0  0  0  0  0  0  0  0  0  0
   -2.0460    1.6218   26.9145 O   0  0  0  0  0  0  0  0  0  0  0  0
   -2.3940   -1.2563   26.2418 C   0  0  0  0  0  0  0  0  0  0  0  0
   -1.1412   -0.6747   25.5666 C   0  0  0  0  0  0  0  0  0  0  0  0
   -0.7034   -1.4756   24.3412 C   0  0  0  0  0  0  0  0  0  0  0  0
    0.3920   -0.8302   23.6314 N   0  0  0  0  0  0  0  0  0  0  0  0
    0.5067    0.5153   23.5601 C   0  0  0  0  0  0  0  0  0  0  0  0
    1.8002    0.8828   23.4499 N   0  0  0  0  0  0  0  0  0  0  0  0
   -0.4623    1.3528   23.5785 N   0  0  0  0  0  0  0  0  0  0  0  0
   -4.0172    1.4119   28.0634 N   0  0  0  0  0  0  0  0  0  0  0  0
   -4.2847    2.8438   28.1291 C   0  0  2  0  0  0  0  0  0  0  0  0
   -5.5916    2.9952   28.9283 C   0  0  0  0  0  0  0  0  0  0  0  0
   -6.6760    2.6821   28.4443 O   0  0  0  0  0  0  0  0  0  0  0  0
   -4.4413    3.4365   26.7197 C   0  0  0  0  0  0  0  0  0  0  0  0
   -3.0992    3.7042   26.0412 C   0  0  0  0  0  0  0  0  0  0  0  0
   -3.2894    4.3230   24.6561 C   0  0  0  0  0  0  0  0  0  0  0  0
   -1.9797    4.5733   24.0717 N   0  0  0  0  0  0  0  0  0  0  0  0
   -1.1884    3.5362   23.7078 C   0  0  0  0  0  0  0  0  0  0  0  0
   -0.5749    2.9922   24.7781 N   0  0  0  0  0  0  0  0  0  0  0  0
   -1.0400    3.0995   22.5126 N   0  0  0  0  0  0  0  0  0  0  0  0
   -5.4446    3.5024   30.2033 N   0  0  0  0  0  0  0  0  0  0  0  0
   -6.5699    4.0839   30.9340 C   0  0  2  0  0  0  0  0  0  0  0  0
   -7.4502    5.1106   30.1690 C   0  0  0  0  0  0  0  0  0  0  0  0
   -6.8883    6.0055   29.5230 O   0  0  0  0  0  0  0  0  0  0  0  0
   -6.1801    4.5948   32.3430 C   0  0  1  0  0  0  0  0  0  0  0  0
   -7.4246    4.9909   33.1462 C   0  0  0  0  0  0  0  0  0  0  0  0
   -5.3357    3.6107   33.1493 C   0  0  0  0  0  0  0  0  0  0  0  0
   -8.8242    5.0190   30.1206 N   0  0  0  0  0  0  0  0  0  0  0  0
   -9.6303    6.2034   29.7728 C   0  0  2  0  0  0  0  0  0  0  0  0
   -9.8374    7.1001   31.0233 C   0  0  0  0  0  0  0  0  0  0  0  0
   -9.8846    6.6587   32.1709 O   0  0  0  0  0  0  0  0  0  0  0  0
  -10.9407    5.6093   29.2619 C   0  0  0  0  0  0  0  0  0  0  0  0
  -11.1096    4.3732   30.1346 C   0  0  0  0  0  0  0  0  0  0  0  0
   -9.6845    3.8640   30.3127 C   0  0  0  0  0  0  0  0  0  0  0  0
   -9.9953    8.4380   30.7354 N   0  0  0  0  0  0  0  0  0  0  0  0
   -9.8793    9.4837   31.7417 C   0  0  2  0  0  0  0  0  0  0  0  0
  -11.2333   10.2169   31.8265 C   0  0  0  0  0  0  0  0  0  0  0  0
  -12.0795   10.1624   30.9384 O   0  0  0  0  0  0  0  0  0  0  0  0
   -8.7508   10.4331   31.3292 C   0  0  0  0  0  0  0  0  0  0  0  0
   -7.3811    9.7591   31.2717 C   0  0  0  0  0  0  0  0  0  0  0  0
   -6.5981   10.0013   32.5351 C   0  0  0  0  0  0  0  0  0  0  0  0
   -7.2872    9.6357   33.6320 O   0  0  0  0  0  0  0  0  0  0  0  0
   -5.4689   10.4457   32.6291 O   0  0  0  0  0  0  0  0  0  0  0  0
  -11.4014   10.9860   32.9550 N   0  0  0  0  0  0  0  0  0  0  0  0
  -12.1953   10.5311   34.1065 C   0  0  2  0  0  0  0  0  0  0  0  0
  -11.7018   11.2613   35.3624 C   0  0  0  0  0  0  0  0  0  0  0  0
  -10.7656   12.0376   35.4537 O   0  0  0  0  0  0  0  0  0  0  0  0
  -12.0932    9.0083   34.2992 C   0  0  0  0  0  0  0  0  0  0  0  0
  -13.2771    8.2675   33.7209 C   0  0  0  0  0  0  0  0  0  0  0  0
  -13.8028    8.6442   32.4767 C   0  0  0  0  0  0  0  0  0  0  0  0
  -13.8814    7.2168   34.4245 C   0  0  0  0  0  0  0  0  0  0  0  0
  -14.9130    7.9831   31.9494 C   0  0  0  0  0  0  0  0  0  0  0  0
  -14.9905    6.5536   33.8924 C   0  0  0  0  0  0  0  0  0  0  0  0
  -15.5072    6.9396   32.6579 C   0  0  0  0  0  0  0  0  0  0  0  0
  -12.4292   10.9717   36.4719 O   0  0  0  0  0  0  0  0  0  0  0  0
   -1.3450    0.8567   23.6962 H   0  0  0  0  0  0  0  0  0  0  0  0
   -1.8061    2.4708   22.2748 H   0  0  0  0  0  0  0  0  0  0  0  0
  1  2  2  0
  1  3  1  0
  1  4  1  0
  4  5  1  0
  5  6  1  0
  5  8  1  6
  6  7  2  0
  6 13  1  0
  8  9  1  0
  9 10  1  0
 10 11  2  0
 10 12  1  0
 14 13  1  1
 14 15  1  0
 14 17  1  0
 15 16  2  0
 15 21  1  0
 17 18  1  0
 17 19  1  6
 18 20  1  0
 21 22  1  0
 22 23  1  0
 22 25  1  6
 23 24  2  0
 23 32  1  0
 25 26  1  0
 26 27  1  0
 27 28  1  0
 28 29  1  0
 29 30  1  0
 29 31  2  0
 32 33  1  0
 33 34  1  0
 33 36  1  6
 34 35  2  0
 34 43  1  0
 36 37  1  0
 37 38  1  0
 38 39  1  0
 39 40  1  0
 40 41  1  0
 40 42  2  0
 44 43  1  6
 44 45  1  0
 44 47  1  0
 45 46  2  0
 45 50  1  0
 47 48  1  1
 47 49  1  0
 50 51  1  0
 50 56  1  0
 51 52  1  1
 51 54  1  0
 52 53  2  0
 52 57  1  0
 54 55  1  0
 55 56  1  0
 57 58  1  0
 58 59  1  0
 58 61  1  6
 59 60  2  0
 59 66  1  0
 61 62  1  0
 62 63  1  0
 63 64  1  0
 63 65  2  0
 66 67  1  0
 67 68  1  0
 67 70  1  1
 68 69  2  0
 68 77  1  0
 70 71  1  0
 71 72  2  0
 71 73  1  0
 72 74  1  0
 73 75  2  0
 74 76  2  0
 75 76  1  0
 31 78  1  0
 42 79  1  0
M  END
$$$$
