
     RDKit          3D

 79 80  0  0  0  0  0  0  0  0999 V2000
   -0.7770  -10.6523   22.9440 C   0  0  0  0  0  0  0  0  0  0  0  0
   -1.2203  -11.3593   23.8388 O   0  0  0  0  0  0  0  0  0  0  0  0
   -0.0551  -11.2307   21.7548 C   0  0  0  0  0  0  0  0  0  0  0  0
   -0.8790   -9.2765   22.8967 N   0  0  0  0  0  0  0  0  0  0  0  0
   -1.2096   -8.4589   24.0710 C   0  0  2  0  0  0  0  0  0  0  0  0
   -1.3732   -6.9938   23.5901 C   0  0  0  0  0  0  0  0  0  0  0  0
   -1.1388   -6.6456   22.4305 O   0  0  0  0  0  0  0  0  0  0  0  0
   -0.2525   -8.6177   25.2585 C   0  0  0  0  0  0  0  0  0  0  0  0
   -0.6173   -7.7513   26.4628 C   0  0  0  0  0  0  0  0  0  0  0  0
    0.1491   -8.1785   27.6816 C   0  0  0  0  0  0  0  0  0  0  0  0
    1.2182   -8.7649   27.6814 O   0  0  0  0  0  0  0  0  0  0  0  0
   -0.4589   -7.8373   28.8330 O   0  0  0  0  0  0  0  0  0  0  0  0
   -1.8794   -6.1243   24.5490 N   0  0  0  0  0  0  0  0  0  0  0  0
   -2.1286   -4.7035   24.2184 C   0  0  2  0  0  0  0  0  0  0  0  0
   -2.1816   -3.9875   25.6108 C   0  0  0  0  0  0  0  0  0  0  0  0
   -1.2925   -4.1366   26.4533 O   0  0  0  0  0  0  0  0  0  0  0  0
   -3.3030   -4.4842   23.2153 C   0  0  2  0  0  0  0  0  0  0  0  0
   -2.8214   -4.7531   21.7610 C   0  0  0  0  0  0  0  0  0  0  0  0
   -3.8982   -3.0703   23.3060 C   0  0  0  0  0  0  0  0  0  0  0  0
   -3.8853   -4.5129   20.6939 C   0  0  0  0  0  0  0  0  0  0  0  0
   -3.2134   -3.1129   25.8327 N   0  0  0  0  0  0  0  0  0  0  0  0
   -4.0276   -3.2007   27.0373 C   0  0  2  0  0  0  0  0  0  0  0  0
   -4.7373   -1.8606   27.2820 C   0  0  0  0  0  0  0  0  0  0  0  0
   -5.6202   -1.4323   26.5413 O   0  0  0  0  0  0  0  0  0  0  0  0
   -3.2125   -3.6330   28.2654 C   0  0  0  0  0  0  0  0  0  0  0  0
   -3.8349   -4.8064   29.0395 C   0  0  0  0  0  0  0  0  0  0  0  0
   -3.0741   -5.1392   30.3223 C   0  0  0  0  0  0  0  0  0  0  0  0
   -2.4996   -6.4766   30.2835 N   0  0  0  0  0  0  0  0  0  0  0  0
   -1.8114   -6.9923   31.3271 C   0  0  0  0  0  0  0  0  0  0  0  0
   -0.7294   -6.2376   31.6101 N   0  0  0  0  0  0  0  0  0  0  0  0
   -2.1256   -8.0446   31.9863 N   0  0  0  0  0  0  0  0  0  0  0  0
   -4.2632   -1.1603   28.3672 N   0  0  0  0  0  0  0  0  0  0  0  0
   -4.5412    0.2596   28.5494 C   0  0  2  0  0  0  0  0  0  0  0  0
   -5.6658    0.6028   27.5559 C   0  0  0  0  0  0  0  0  0  0  0  0
   -6.2084   -0.2672   26.8801 O   0  0  0  0  0  0  0  0  0  0  0  0
   -3.2894    1.1036   28.2614 C   0  0  0  0  0  0  0  0  0  0  0  0
   -3.5969    2.5964   28.1586 C   0  0  0  0  0  0  0  0  0  0  0  0
   -3.8259    3.0188   26.7071 C   0  0  0  0  0  0  0  0  0  0  0  0
   -2.7771    3.9513   26.3203 N   0  0  0  0  0  0  0  0  0  0  0  0
   -2.8655    5.2567   26.6698 C   0  0  0  0  0  0  0  0  0  0  0  0
   -4.0681    5.7693   26.3400 N   0  0  0  0  0  0  0  0  0  0  0  0
   -1.9472    5.9325   27.2542 N   0  0  0  0  0  0  0  0  0  0  0  0
   -6.0027    1.9395   27.4895 N   0  0  0  0  0  0  0  0  0  0  0  0
   -7.2528    2.4463   28.0540 C   0  0  2  0  0  0  0  0  0  0  0  0
   -7.2666    3.9307   28.5129 C   0  0  0  0  0  0  0  0  0  0  0  0
   -6.6062    4.2466   29.5119 O   0  0  0  0  0  0  0  0  0  0  0  0
   -7.8613    1.5061   29.1236 C   0  0  1  0  0  0  0  0  0  0  0  0
   -9.0673    2.1612   29.8071 C   0  0  0  0  0  0  0  0  0  0  0  0
   -8.2534    0.1299   28.5906 C   0  0  0  0  0  0  0  0  0  0  0  0
   -7.9217    4.9183   27.8101 N   0  0  0  0  0  0  0  0  0  0  0  0
   -7.7344    6.3335   28.1787 C   0  0  2  0  0  0  0  0  0  0  0  0
   -8.6612    6.7078   29.3668 C   0  0  0  0  0  0  0  0  0  0  0  0
   -9.4374    5.9124   29.8949 O   0  0  0  0  0  0  0  0  0  0  0  0
   -8.0951    7.0887   26.9017 C   0  0  0  0  0  0  0  0  0  0  0  0
   -9.2118    6.2366   26.3141 C   0  0  0  0  0  0  0  0  0  0  0  0
   -8.7879    4.8117   26.6485 C   0  0  0  0  0  0  0  0  0  0  0  0
   -8.5627    8.0234   29.7634 N   0  0  0  0  0  0  0  0  0  0  0  0
   -9.4158    8.6077   30.7884 C   0  0  2  0  0  0  0  0  0  0  0  0
  -10.5210    7.5873   31.1281 C   0  0  0  0  0  0  0  0  0  0  0  0
  -10.6847    6.5454   30.4994 O   0  0  0  0  0  0  0  0  0  0  0  0
  -10.0037    9.9135   30.2461 C   0  0  0  0  0  0  0  0  0  0  0  0
   -9.0679   11.1109   30.4005 C   0  0  0  0  0  0  0  0  0  0  0  0
   -7.9257   10.7970   31.3304 C   0  0  0  0  0  0  0  0  0  0  0  0
   -7.1548   11.8757   31.5625 O   0  0  0  0  0  0  0  0  0  0  0  0
   -7.6810    9.7309   31.8642 O   0  0  0  0  0  0  0  0  0  0  0  0
  -11.3500    7.9598   32.1612 N   0  0  0  0  0  0  0  0  0  0  0  0
  -11.7008    7.0448   33.2579 C   0  0  2  0  0  0  0  0  0  0  0  0
  -12.8494    6.1396   32.7938 C   0  0  0  0  0  0  0  0  0  0  0  0
  -13.3406    6.0709   31.6796 O   0  0  0  0  0  0  0  0  0  0  0  0
  -12.1052    7.8118   34.5287 C   0  0  0  0  0  0  0  0  0  0  0  0
  -10.9748    8.6420   35.0923 C   0  0  0  0  0  0  0  0  0  0  0  0
   -9.7149    8.6246   34.4767 C   0  0  0  0  0  0  0  0  0  0  0  0
  -11.1574    9.4168   36.2457 C   0  0  0  0  0  0  0  0  0  0  0  0
   -8.6589    9.3665   35.0077 C   0  0  0  0  0  0  0  0  0  0  0  0
  -10.0994   10.1623   36.7731 C   0  0  0  0  0  0  0  0  0  0  0  0
   -8.8510   10.1335   36.1560 C   0  0  0  0  0  0  0  0  0  0  0  0
  -13.3376    5.3440   33.7801 O   0  0  0  0  0  0  0  0  0  0  0  0
   -2.5972   -8.7082   31.3728 H   0  0  0  0  0  0  0  0  0  0  0  0
   -1.1508    5.3308   27.4603 H   0  0  0  0  0  0  0  0  0  0  0  0
  1  2  2  0
  1  3  1  0
  1  4  1  0
  4  5  1  0
  5  6  1  0
  5  8  1  1
  6  7  2  0
  6 13  1  0
  8  9  1  0
  9 10  1  0
 10 11  2  0
 10 12  1  0
 14 13  1  1
 14 15  1  0
 14 17  1  0
 15 16  2  0
 15 21  1  0
 17 18  1  0
 17 19  1  6
 18 20  1  0
 21 22  1  0
 22 23  1  0
 22 25  1  1
 23 24  2  0
 23 32  1  0
 25 26  1  0
 26 27  1  0
 27 28  1  0
 28 29  1  0
 29 30  1  0
 29 31  2  0
 32 33  1  0
 33 34  1  0
 33 36  1  6
 34 35  2  0
 34 43  1  0
 36 37  1  0
 37 38  1  0
 38 39  1  0
 39 40  1  0
 40 41  1  0
 40 42  2  0
 44 43  1  1
 44 45  1  0
 44 47  1  0
 45 46  2  0
 45 50  1  0
 47 48  1  6
 47 49  1  0
 50 51  1  0
 50 56  1  0
 51 52  1  1
 51 54  1  0
 52 53  2  0
 52 57  1  0
 54 55  1  0
 55 56  1  0
 57 58  1  0
 58 59  1  0
 58 61  1  6
 59 60  2  0
 59 66  1  0
 61 62  1  0
 62 63  1  0
 63 64  1  0
 63 65  2  0
 66 67  1  0
 67 68  1  0
 67 70  1  1
 68 69  2  0
 68 77  1  0
 70 71  1  0
 71 72  2  0
 71 73  1  0
 72 74  1  0
 73 75  2  0
 74 76  2  0
 75 76  1  0
 31 78  1  0
 42 79  1  0
M  END
$$$$
