
     RDKit          3D

 79 80  0  0  0  0  0  0  0  0999 V2000
   -0.1529   -8.8802   26.9602 C   0  0  0  0  0  0  0  0  0  0  0  0
    0.1440   -9.2320   28.0938 O   0  0  0  0  0  0  0  0  0  0  0  0
   -0.0303   -9.8084   25.7798 C   0  0  0  0  0  0  0  0  0  0  0  0
   -0.6316   -7.6317   26.6176 N   0  0  0  0  0  0  0  0  0  0  0  0
   -0.7105   -6.5170   27.5706 C   0  0  2  0  0  0  0  0  0  0  0  0
   -1.5195   -5.3798   26.8946 C   0  0  0  0  0  0  0  0  0  0  0  0
   -1.2976   -4.1866   27.1133 O   0  0  0  0  0  0  0  0  0  0  0  0
    0.6366   -6.0618   28.1449 C   0  0  0  0  0  0  0  0  0  0  0  0
    0.5432   -4.8081   29.0128 C   0  0  0  0  0  0  0  0  0  0  0  0
    1.7811   -4.6405   29.8464 C   0  0  0  0  0  0  0  0  0  0  0  0
    2.8132   -5.2784   29.7251 O   0  0  0  0  0  0  0  0  0  0  0  0
    1.6630   -3.6756   30.7775 O   0  0  0  0  0  0  0  0  0  0  0  0
   -2.4586   -5.8126   25.9658 N   0  0  0  0  0  0  0  0  0  0  0  0
   -3.5316   -4.9045   25.5031 C   0  0  2  0  0  0  0  0  0  0  0  0
   -3.1267   -3.5049   26.0788 C   0  0  0  0  0  0  0  0  0  0  0  0
   -3.1573   -3.2657   27.2890 O   0  0  0  0  0  0  0  0  0  0  0  0
   -4.9722   -5.4394   25.7716 C   0  0  2  0  0  0  0  0  0  0  0  0
   -5.0887   -6.9188   25.3060 C   0  0  0  0  0  0  0  0  0  0  0  0
   -6.0524   -4.5957   25.0764 C   0  0  0  0  0  0  0  0  0  0  0  0
   -5.8959   -7.8100   26.2456 C   0  0  0  0  0  0  0  0  0  0  0  0
   -2.6493   -2.5721   25.1951 N   0  0  0  0  0  0  0  0  0  0  0  0
   -3.1737   -1.2133   25.1799 C   0  0  2  0  0  0  0  0  0  0  0  0
   -4.4159   -1.1271   26.0790 C   0  0  0  0  0  0  0  0  0  0  0  0
   -5.5113   -1.5720   25.7419 O   0  0  0  0  0  0  0  0  0  0  0  0
   -3.4785   -0.7187   23.7579 C   0  0  0  0  0  0  0  0  0  0  0  0
   -3.4088    0.8096   23.6060 C   0  0  0  0  0  0  0  0  0  0  0  0
   -2.5906    1.2470   22.3918 C   0  0  0  0  0  0  0  0  0  0  0  0
   -3.4243    1.8505   21.3618 N   0  0  0  0  0  0  0  0  0  0  0  0
   -4.5187    1.2280   20.8687 C   0  0  0  0  0  0  0  0  0  0  0  0
   -5.6381    1.9256   21.1527 N   0  0  0  0  0  0  0  0  0  0  0  0
   -4.5235    0.1316   20.2064 N   0  0  0  0  0  0  0  0  0  0  0  0
   -4.2087   -0.4640   27.2667 N   0  0  0  0  0  0  0  0  0  0  0  0
   -5.3082   -0.1277   28.1636 C   0  0  2  0  0  0  0  0  0  0  0  0
   -6.1659    0.9077   27.4139 C   0  0  0  0  0  0  0  0  0  0  0  0
   -5.6524    1.7734   26.7105 O   0  0  0  0  0  0  0  0  0  0  0  0
   -4.7792    0.4610   29.4811 C   0  0  0  0  0  0  0  0  0  0  0  0
   -4.4064   -0.6152   30.4991 C   0  0  0  0  0  0  0  0  0  0  0  0
   -5.4466   -1.7352   30.5310 C   0  0  0  0  0  0  0  0  0  0  0  0
   -4.7665   -3.0104   30.3560 N   0  0  0  0  0  0  0  0  0  0  0  0
   -4.3908   -3.7343   31.4371 C   0  0  0  0  0  0  0  0  0  0  0  0
   -5.4227   -3.9139   32.2860 N   0  0  0  0  0  0  0  0  0  0  0  0
   -3.2194   -4.2116   31.6403 N   0  0  0  0  0  0  0  0  0  0  0  0
   -7.5283    0.7843   27.5970 N   0  0  0  0  0  0  0  0  0  0  0  0
   -8.4102    1.9506   27.6164 C   0  0  2  0  0  0  0  0  0  0  0  0
   -8.2341    2.9462   28.7963 C   0  0  0  0  0  0  0  0  0  0  0  0
   -8.2628    2.5033   29.9525 O   0  0  0  0  0  0  0  0  0  0  0  0
   -9.8981    1.5907   27.3824 C   0  0  1  0  0  0  0  0  0  0  0  0
  -10.7670    2.8532   27.3373 C   0  0  0  0  0  0  0  0  0  0  0  0
  -10.1447    0.7482   26.1329 C   0  0  0  0  0  0  0  0  0  0  0  0
   -7.9730    4.2854   28.6041 N   0  0  0  0  0  0  0  0  0  0  0  0
   -7.9641    5.2073   29.7546 C   0  0  2  0  0  0  0  0  0  0  0  0
   -9.4118    5.6457   30.1047 C   0  0  0  0  0  0  0  0  0  0  0  0
  -10.2480    5.9547   29.2565 O   0  0  0  0  0  0  0  0  0  0  0  0
   -7.1052    6.3744   29.2737 C   0  0  0  0  0  0  0  0  0  0  0  0
   -7.4511    6.4556   27.7931 C   0  0  0  0  0  0  0  0  0  0  0  0
   -7.6255    4.9975   27.3863 C   0  0  0  0  0  0  0  0  0  0  0  0
   -9.6744    5.6890   31.4563 N   0  0  0  0  0  0  0  0  0  0  0  0
   -9.9426    6.9283   32.1718 C   0  0  2  0  0  0  0  0  0  0  0  0
   -8.8053    7.9196   31.8522 C   0  0  0  0  0  0  0  0  0  0  0  0
   -7.8020    7.6039   31.2186 O   0  0  0  0  0  0  0  0  0  0  0  0
  -10.0149    6.6197   33.6699 C   0  0  0  0  0  0  0  0  0  0  0  0
  -10.2383    7.8587   34.5349 C   0  0  0  0  0  0  0  0  0  0  0  0
  -10.7306    7.4862   35.9085 C   0  0  0  0  0  0  0  0  0  0  0  0
  -11.4986    6.3811   35.8852 O   0  0  0  0  0  0  0  0  0  0  0  0
  -10.4855    8.0515   36.9582 O   0  0  0  0  0  0  0  0  0  0  0  0
   -8.9745    9.1789   32.3804 N   0  0  0  0  0  0  0  0  0  0  0  0
   -9.4721   10.3078   31.5797 C   0  0  2  0  0  0  0  0  0  0  0  0
   -9.5609   11.5470   32.4801 C   0  0  0  0  0  0  0  0  0  0  0  0
   -9.3473   11.6140   33.6790 O   0  0  0  0  0  0  0  0  0  0  0  0
  -10.8450   10.0000   30.9576 C   0  0  0  0  0  0  0  0  0  0  0  0
  -11.3152   11.0865   30.0178 C   0  0  0  0  0  0  0  0  0  0  0  0
  -12.3943   11.9074   30.3758 C   0  0  0  0  0  0  0  0  0  0  0  0
  -10.7026   11.2738   28.7713 C   0  0  0  0  0  0  0  0  0  0  0  0
  -12.8519   12.8941   29.5013 C   0  0  0  0  0  0  0  0  0  0  0  0
  -11.1600   12.2654   27.8991 C   0  0  0  0  0  0  0  0  0  0  0  0
  -12.2359   13.0716   28.2632 C   0  0  0  0  0  0  0  0  0  0  0  0
   -9.9241   12.6714   31.8109 O   0  0  0  0  0  0  0  0  0  0  0  0
   -5.4837   -0.1734   20.0507 H   0  0  0  0  0  0  0  0  0  0  0  0
   -2.7425   -4.3523   30.7506 H   0  0  0  0  0  0  0  0  0  0  0  0
  1  2  2  0
  1  3  1  0
  1  4  1  0
  4  5  1  0
  5  6  1  0
  5  8  1  6
  6  7  2  0
  6 13  1  0
  8  9  1  0
  9 10  1  0
 10 11  2  0
 10 12  1  0
 14 13  1  1
 14 15  1  0
 14 17  1  0
 15 16  2  0
 15 21  1  0
 17 18  1  0
 17 19  1  6
 18 20  1  0
 21 22  1  0
 22 23  1  0
 22 25  1  6
 23 24  2  0
 23 32  1  0
 25 26  1  0
 26 27  1  0
 27 28  1  0
 28 29  1  0
 29 30  1  0
 29 31  2  0
 32 33  1  0
 33 34  1  0
 33 36  1  1
 34 35  2  0
 34 43  1  0
 36 37  1  0
 37 38  1  0
 38 39  1  0
 39 40  1  0
 40 41  1  0
 40 42  2  0
 44 43  1  1
 44 45  1  0
 44 47  1  0
 45 46  2  0
 45 50  1  0
 47 48  1  6
 47 49  1  0
 50 51  1  0
 50 56  1  0
 51 52  1  6
 51 54  1  0
 52 53  2  0
 52 57  1  0
 54 55  1  0
 55 56  1  0
 57 58  1  0
 58 59  1  0
 58 61  1  1
 59 60  2  0
 59 66  1  0
 61 62  1  0
 62 63  1  0
 63 64  1  0
 63 65  2  0
 66 67  1  0
 67 68  1  0
 67 70  1  1
 68 69  2  0
 68 77  1  0
 70 71  1  0
 71 72  2  0
 71 73  1  0
 72 74  1  0
 73 75  2  0
 74 76  2  0
 75 76  1  0
 31 78  1  0
 42 79  1  0
M  END
$$$$
