
     RDKit          3D

 79 80  0  0  0  0  0  0  0  0999 V2000
   -2.6245   -7.1297   30.4607 C   0  0  0  0  0  0  0  0  0  0  0  0
   -2.0198   -6.0813   30.6399 O   0  0  0  0  0  0  0  0  0  0  0  0
   -3.9897   -7.3732   31.0498 C   0  0  0  0  0  0  0  0  0  0  0  0
   -2.1608   -8.1946   29.7148 N   0  0  0  0  0  0  0  0  0  0  0  0
   -1.2163   -8.0389   28.6009 C   0  0  2  0  0  0  0  0  0  0  0  0
   -1.8828   -7.1165   27.5477 C   0  0  0  0  0  0  0  0  0  0  0  0
   -3.1052   -6.9729   27.4695 O   0  0  0  0  0  0  0  0  0  0  0  0
   -0.6789   -9.3532   28.0217 C   0  0  0  0  0  0  0  0  0  0  0  0
    0.5888   -9.1843   27.1860 C   0  0  0  0  0  0  0  0  0  0  0  0
    1.0202  -10.4963   26.5964 C   0  0  0  0  0  0  0  0  0  0  0  0
    1.2408  -11.5199   27.2213 O   0  0  0  0  0  0  0  0  0  0  0  0
    1.1399  -10.4580   25.2562 O   0  0  0  0  0  0  0  0  0  0  0  0
   -0.9896   -6.4068   26.7538 N   0  0  0  0  0  0  0  0  0  0  0  0
   -1.4613   -5.6907   25.5476 C   0  0  2  0  0  0  0  0  0  0  0  0
   -2.3769   -4.5506   26.1098 C   0  0  0  0  0  0  0  0  0  0  0  0
   -1.9197   -3.4541   26.4434 O   0  0  0  0  0  0  0  0  0  0  0  0
   -2.0256   -6.6283   24.4358 C   0  0  2  0  0  0  0  0  0  0  0  0
   -0.9474   -7.6671   24.0143 C   0  0  0  0  0  0  0  0  0  0  0  0
   -2.5029   -5.8526   23.1980 C   0  0  0  0  0  0  0  0  0  0  0  0
   -1.4538   -8.7433   23.0584 C   0  0  0  0  0  0  0  0  0  0  0  0
   -3.7277   -4.7812   26.1384 N   0  0  0  0  0  0  0  0  0  0  0  0
   -4.6431   -3.8149   26.7300 C   0  0  2  0  0  0  0  0  0  0  0  0
   -3.9642   -2.4395   26.8098 C   0  0  0  0  0  0  0  0  0  0  0  0
   -2.7829   -2.2995   27.1206 O   0  0  0  0  0  0  0  0  0  0  0  0
   -5.1597   -4.2630   28.1055 C   0  0  0  0  0  0  0  0  0  0  0  0
   -4.0440   -4.5266   29.1299 C   0  0  0  0  0  0  0  0  0  0  0  0
   -3.0587   -3.3642   29.2443 C   0  0  0  0  0  0  0  0  0  0  0  0
   -2.1436   -3.5339   30.3640 N   0  0  0  0  0  0  0  0  0  0  0  0
   -2.0429   -2.6177   31.3535 C   0  0  0  0  0  0  0  0  0  0  0  0
   -0.8617   -1.9690   31.2903 N   0  0  0  0  0  0  0  0  0  0  0  0
   -2.9355   -2.3671   32.2374 N   0  0  0  0  0  0  0  0  0  0  0  0
   -4.8040   -1.3795   26.5562 N   0  0  0  0  0  0  0  0  0  0  0  0
   -4.6008   -0.4904   25.4184 C   0  0  2  0  0  0  0  0  0  0  0  0
   -5.8902    0.3412   25.2940 C   0  0  0  0  0  0  0  0  0  0  0  0
   -6.8945   -0.1146   24.7540 O   0  0  0  0  0  0  0  0  0  0  0  0
   -4.3505   -1.2950   24.1330 C   0  0  0  0  0  0  0  0  0  0  0  0
   -3.3076   -0.6454   23.2254 C   0  0  0  0  0  0  0  0  0  0  0  0
   -2.9856   -1.5333   22.0232 C   0  0  0  0  0  0  0  0  0  0  0  0
   -4.2191   -1.8069   21.3000 N   0  0  0  0  0  0  0  0  0  0  0  0
   -4.1730   -2.2600   20.0246 C   0  0  0  0  0  0  0  0  0  0  0  0
   -5.3927   -2.2267   19.4510 N   0  0  0  0  0  0  0  0  0  0  0  0
   -3.1180   -2.6567   19.4155 N   0  0  0  0  0  0  0  0  0  0  0  0
   -5.8223    1.6128   25.8262 N   0  0  0  0  0  0  0  0  0  0  0  0
   -6.9241    2.1818   26.6011 C   0  0  2  0  0  0  0  0  0  0  0  0
   -6.6815    3.5711   27.2533 C   0  0  0  0  0  0  0  0  0  0  0  0
   -5.6432    3.7446   27.9056 O   0  0  0  0  0  0  0  0  0  0  0  0
   -7.5463    1.1760   27.6008 C   0  0  1  0  0  0  0  0  0  0  0  0
   -8.1783   -0.0103   26.8632 C   0  0  0  0  0  0  0  0  0  0  0  0
   -6.5699    0.6665   28.6587 C   0  0  0  0  0  0  0  0  0  0  0  0
   -7.5374    4.6355   27.0713 N   0  0  0  0  0  0  0  0  0  0  0  0
   -7.1336    5.9876   27.4982 C   0  0  2  0  0  0  0  0  0  0  0  0
   -7.3927    6.1724   29.0179 C   0  0  0  0  0  0  0  0  0  0  0  0
   -8.4900    5.9888   29.5435 O   0  0  0  0  0  0  0  0  0  0  0  0
   -8.0031    6.9087   26.6457 C   0  0  0  0  0  0  0  0  0  0  0  0
   -9.3046    6.1271   26.5307 C   0  0  0  0  0  0  0  0  0  0  0  0
   -8.8441    4.6776   26.4372 C   0  0  0  0  0  0  0  0  0  0  0  0
   -6.2898    6.5914   29.7291 N   0  0  0  0  0  0  0  0  0  0  0  0
   -6.3829    7.2071   31.0451 C   0  0  2  0  0  0  0  0  0  0  0  0
   -7.8189    7.7408   31.2218 C   0  0  0  0  0  0  0  0  0  0  0  0
   -8.3684    8.4661   30.3973 O   0  0  0  0  0  0  0  0  0  0  0  0
   -5.3498    8.3343   31.1294 C   0  0  0  0  0  0  0  0  0  0  0  0
   -4.6035    8.5730   29.8181 C   0  0  0  0  0  0  0  0  0  0  0  0
   -3.5994    9.6870   29.9544 C   0  0  0  0  0  0  0  0  0  0  0  0
   -4.0159   10.8163   29.3520 O   0  0  0  0  0  0  0  0  0  0  0  0
   -2.5343    9.6520   30.5426 O   0  0  0  0  0  0  0  0  0  0  0  0
   -8.4229    7.3857   32.4060 N   0  0  0  0  0  0  0  0  0  0  0  0
   -9.3306    8.2896   33.1286 C   0  0  2  0  0  0  0  0  0  0  0  0
   -8.4900    9.2909   33.9316 C   0  0  0  0  0  0  0  0  0  0  0  0
   -8.6797   10.4887   34.0605 O   0  0  0  0  0  0  0  0  0  0  0  0
  -10.2761    7.5154   34.0632 C   0  0  0  0  0  0  0  0  0  0  0  0
  -10.8759    6.2947   33.4037 C   0  0  0  0  0  0  0  0  0  0  0  0
  -11.6516    5.3996   34.1543 C   0  0  0  0  0  0  0  0  0  0  0  0
  -10.6473    6.0246   32.0476 C   0  0  0  0  0  0  0  0  0  0  0  0
  -12.1853    4.2558   33.5587 C   0  0  0  0  0  0  0  0  0  0  0  0
  -11.1863    4.8807   31.4525 C   0  0  0  0  0  0  0  0  0  0  0  0
  -11.9512    3.9961   32.2091 C   0  0  0  0  0  0  0  0  0  0  0  0
   -7.4231    8.7217   34.5495 O   0  0  0  0  0  0  0  0  0  0  0  0
   -3.1724   -1.3759   32.2173 H   0  0  0  0  0  0  0  0  0  0  0  0
   -2.4159   -2.9514   20.0929 H   0  0  0  0  0  0  0  0  0  0  0  0
  1  2  2  0
  1  3  1  0
  1  4  1  0
  4  5  1  0
  5  6  1  0
  5  8  1  6
  6  7  2  0
  6 13  1  0
  8  9  1  0
  9 10  1  0
 10 11  2  0
 10 12  1  0
 14 13  1  1
 14 15  1  0
 14 17  1  0
 15 16  2  0
 15 21  1  0
 17 18  1  0
 17 19  1  6
 18 20  1  0
 21 22  1  0
 22 23  1  0
 22 25  1  1
 23 24  2  0
 23 32  1  0
 25 26  1  0
 26 27  1  0
 27 28  1  0
 28 29  1  0
 29 30  1  0
 29 31  2  0
 32 33  1  0
 33 34  1  0
 33 36  1  6
 34 35  2  0
 34 43  1  0
 36 37  1  0
 37 38  1  0
 38 39  1  0
 39 40  1  0
 40 41  1  0
 40 42  2  0
 44 43  1  1
 44 45  1  0
 44 47  1  0
 45 46  2  0
 45 50  1  0
 47 48  1  6
 47 49  1  0
 50 51  1  0
 50 56  1  0
 51 52  1  1
 51 54  1  0
 52 53  2  0
 52 57  1  0
 54 55  1  0
 55 56  1  0
 57 58  1  0
 58 59  1  0
 58 61  1  6
 59 60  2  0
 59 66  1  0
 61 62  1  0
 62 63  1  0
 63 64  1  0
 63 65  2  0
 66 67  1  0
 67 68  1  0
 67 70  1  1
 68 69  2  0
 68 77  1  0
 70 71  1  0
 71 72  2  0
 71 73  1  0
 72 74  1  0
 73 75  2  0
 74 76  2  0
 75 76  1  0
 31 78  1  0
 42 79  1  0
M  END
$$$$
