
     RDKit          3D

 79 80  0  0  0  0  0  0  0  0999 V2000
   -3.1267   -8.4142   24.2070 C   0  0  0  0  0  0  0  0  0  0  0  0
   -3.1656   -8.6087   25.4143 O   0  0  0  0  0  0  0  0  0  0  0  0
   -3.2384   -9.5417   23.2139 C   0  0  0  0  0  0  0  0  0  0  0  0
   -2.9878   -7.1786   23.6073 N   0  0  0  0  0  0  0  0  0  0  0  0
   -3.0373   -5.9166   24.3568 C   0  0  2  0  0  0  0  0  0  0  0  0
   -4.3882   -5.2298   24.0280 C   0  0  0  0  0  0  0  0  0  0  0  0
   -5.3412   -5.8400   23.5379 O   0  0  0  0  0  0  0  0  0  0  0  0
   -1.8178   -5.0060   24.1692 C   0  0  0  0  0  0  0  0  0  0  0  0
   -1.8412   -3.7574   25.0492 C   0  0  0  0  0  0  0  0  0  0  0  0
   -0.6356   -2.8994   24.7934 C   0  0  0  0  0  0  0  0  0  0  0  0
   -0.6448   -1.6933   24.6140 O   0  0  0  0  0  0  0  0  0  0  0  0
    0.5160   -3.5963   24.7885 O   0  0  0  0  0  0  0  0  0  0  0  0
   -4.4629   -3.8935   24.4028 N   0  0  0  0  0  0  0  0  0  0  0  0
   -5.4424   -3.4522   25.4206 C   0  0  2  0  0  0  0  0  0  0  0  0
   -5.1620   -1.9197   25.5860 C   0  0  0  0  0  0  0  0  0  0  0  0
   -5.8441   -1.2103   26.3305 O   0  0  0  0  0  0  0  0  0  0  0  0
   -5.4788   -4.3514   26.6948 C   0  0  2  0  0  0  0  0  0  0  0  0
   -6.8268   -4.1592   27.4465 C   0  0  0  0  0  0  0  0  0  0  0  0
   -4.3115   -4.0634   27.6520 C   0  0  0  0  0  0  0  0  0  0  0  0
   -7.8469   -3.3074   26.6964 C   0  0  0  0  0  0  0  0  0  0  0  0
   -4.0699   -1.4035   24.9382 N   0  0  0  0  0  0  0  0  0  0  0  0
   -3.6663   -0.0174   25.1321 C   0  0  2  0  0  0  0  0  0  0  0  0
   -4.1779    0.4861   26.4900 C   0  0  0  0  0  0  0  0  0  0  0  0
   -4.9931   -0.1391   27.1654 O   0  0  0  0  0  0  0  0  0  0  0  0
   -4.1323    0.8943   23.9871 C   0  0  0  0  0  0  0  0  0  0  0  0
   -5.6449    0.8286   23.7201 C   0  0  0  0  0  0  0  0  0  0  0  0
   -5.9849    0.8578   22.2306 C   0  0  0  0  0  0  0  0  0  0  0  0
   -4.8332    1.2185   21.4160 N   0  0  0  0  0  0  0  0  0  0  0  0
   -4.1252    0.2958   20.7261 C   0  0  0  0  0  0  0  0  0  0  0  0
   -4.8975   -0.3102   19.8007 N   0  0  0  0  0  0  0  0  0  0  0  0
   -2.8856    0.0210   20.8955 N   0  0  0  0  0  0  0  0  0  0  0  0
   -3.6866    1.7177   26.8573 N   0  0  0  0  0  0  0  0  0  0  0  0
   -4.0620    2.3534   28.1149 C   0  0  2  0  0  0  0  0  0  0  0  0
   -5.5335    2.7758   27.9543 C   0  0  0  0  0  0  0  0  0  0  0  0
   -5.9160    3.3947   26.9650 O   0  0  0  0  0  0  0  0  0  0  0  0
   -3.1758    3.5774   28.3953 C   0  0  0  0  0  0  0  0  0  0  0  0
   -3.6347    4.3686   29.6188 C   0  0  0  0  0  0  0  0  0  0  0  0
   -2.4819    4.6006   30.5959 C   0  0  0  0  0  0  0  0  0  0  0  0
   -1.8491    5.8729   30.2790 N   0  0  0  0  0  0  0  0  0  0  0  0
   -0.5846    5.9011   29.7950 C   0  0  0  0  0  0  0  0  0  0  0  0
   -0.5795    5.9771   28.4489 N   0  0  0  0  0  0  0  0  0  0  0  0
    0.4823    5.8777   30.5039 N   0  0  0  0  0  0  0  0  0  0  0  0
   -6.3658    2.4105   28.9928 N   0  0  0  0  0  0  0  0  0  0  0  0
   -7.7128    2.9628   29.1294 C   0  0  2  0  0  0  0  0  0  0  0  0
   -7.8491    4.3003   29.9084 C   0  0  0  0  0  0  0  0  0  0  0  0
   -7.5013    4.3303   31.0966 O   0  0  0  0  0  0  0  0  0  0  0  0
   -8.7543    1.9154   29.5950 C   0  0  1  0  0  0  0  0  0  0  0  0
  -10.1546    2.5343   29.6783 C   0  0  0  0  0  0  0  0  0  0  0  0
   -8.7961    0.6552   28.7336 C   0  0  0  0  0  0  0  0  0  0  0  0
   -8.2692    5.4679   29.3094 N   0  0  0  0  0  0  0  0  0  0  0  0
   -8.3457    6.7133   30.0949 C   0  0  2  0  0  0  0  0  0  0  0  0
   -9.6763    6.7656   30.8934 C   0  0  0  0  0  0  0  0  0  0  0  0
  -10.6450    6.0503   30.6399 O   0  0  0  0  0  0  0  0  0  0  0  0
   -8.2607    7.8114   29.0375 C   0  0  0  0  0  0  0  0  0  0  0  0
   -9.0053    7.1986   27.8592 C   0  0  0  0  0  0  0  0  0  0  0  0
   -8.6263    5.7241   27.9246 C   0  0  0  0  0  0  0  0  0  0  0  0
   -9.6922    7.7082   31.8978 N   0  0  0  0  0  0  0  0  0  0  0  0
  -10.6304    7.6646   33.0102 C   0  0  2  0  0  0  0  0  0  0  0  0
  -10.0741    8.5559   34.1391 C   0  0  0  0  0  0  0  0  0  0  0  0
   -9.2955    8.1431   34.9941 O   0  0  0  0  0  0  0  0  0  0  0  0
  -10.7796    6.2098   33.4644 C   0  0  0  0  0  0  0  0  0  0  0  0
   -9.9969    5.8875   34.7359 C   0  0  0  0  0  0  0  0  0  0  0  0
   -9.1735    4.6376   34.5701 C   0  0  0  0  0  0  0  0  0  0  0  0
   -7.8889    4.8309   34.9227 O   0  0  0  0  0  0  0  0  0  0  0  0
   -9.5577    3.5458   34.1935 O   0  0  0  0  0  0  0  0  0  0  0  0
  -10.5608    9.8428   34.1488 N   0  0  0  0  0  0  0  0  0  0  0  0
   -9.7575   10.9916   33.7036 C   0  0  2  0  0  0  0  0  0  0  0  0
  -10.5892   12.2692   33.8771 C   0  0  0  0  0  0  0  0  0  0  0  0
  -11.7380   12.4651   33.5175 O   0  0  0  0  0  0  0  0  0  0  0  0
   -9.3124   10.8386   32.2390 C   0  0  0  0  0  0  0  0  0  0  0  0
   -7.9235   10.2564   32.1102 C   0  0  0  0  0  0  0  0  0  0  0  0
   -7.1851   10.4526   30.9343 C   0  0  0  0  0  0  0  0  0  0  0  0
   -7.3643    9.4946   33.1452 C   0  0  0  0  0  0  0  0  0  0  0  0
   -5.9133    9.8946   30.7973 C   0  0  0  0  0  0  0  0  0  0  0  0
   -6.0888    8.9403   33.0072 C   0  0  0  0  0  0  0  0  0  0  0  0
   -5.3665    9.1377   31.8327 C   0  0  0  0  0  0  0  0  0  0  0  0
   -9.9174   13.2646   34.5109 O   0  0  0  0  0  0  0  0  0  0  0  0
   -2.4831    0.6534   21.5863 H   0  0  0  0  0  0  0  0  0  0  0  0
    1.1669    6.5296   30.1229 H   0  0  0  0  0  0  0  0  0  0  0  0
  1  2  2  0
  1  3  1  0
  1  4  1  0
  4  5  1  0
  5  6  1  0
  5  8  1  6
  6  7  2  0
  6 13  1  0
  8  9  1  0
  9 10  1  0
 10 11  2  0
 10 12  1  0
 14 13  1  6
 14 15  1  0
 14 17  1  0
 15 16  2  0
 15 21  1  0
 17 18  1  0
 17 19  1  1
 18 20  1  0
 21 22  1  0
 22 23  1  0
 22 25  1  6
 23 24  2  0
 23 32  1  0
 25 26  1  0
 26 27  1  0
 27 28  1  0
 28 29  1  0
 29 30  1  0
 29 31  2  0
 32 33  1  0
 33 34  1  0
 33 36  1  6
 34 35  2  0
 34 43  1  0
 36 37  1  0
 37 38  1  0
 38 39  1  0
 39 40  1  0
 40 41  1  0
 40 42  2  0
 44 43  1  1
 44 45  1  0
 44 47  1  0
 45 46  2  0
 45 50  1  0
 47 48  1  6
 47 49  1  0
 50 51  1  0
 50 56  1  0
 51 52  1  6
 51 54  1  0
 52 53  2  0
 52 57  1  0
 54 55  1  0
 55 56  1  0
 57 58  1  0
 58 59  1  0
 58 61  1  1
 59 60  2  0
 59 66  1  0
 61 62  1  0
 62 63  1  0
 63 64  1  0
 63 65  2  0
 66 67  1  0
 67 68  1  0
 67 70  1  6
 68 69  2  0
 68 77  1  0
 70 71  1  0
 71 72  2  0
 71 73  1  0
 72 74  1  0
 73 75  2  0
 74 76  2  0
 75 76  1  0
 31 78  1  0
 42 79  1  0
M  END
$$$$
