
     RDKit          3D

 79 80  0  0  0  0  0  0  0  0999 V2000
    0.9772   -3.0113   29.3242 C   0  0  0  0  0  0  0  0  0  0  0  0
    2.0938   -2.5126   29.3619 O   0  0  0  0  0  0  0  0  0  0  0  0
    0.3573   -3.6698   30.5293 C   0  0  0  0  0  0  0  0  0  0  0  0
    0.1560   -3.0331   28.2150 N   0  0  0  0  0  0  0  0  0  0  0  0
    0.5423   -2.4511   26.9231 C   0  0  2  0  0  0  0  0  0  0  0  0
   -0.6770   -2.5709   25.9726 C   0  0  0  0  0  0  0  0  0  0  0  0
   -0.5818   -2.4365   24.7504 O   0  0  0  0  0  0  0  0  0  0  0  0
    1.8455   -3.0010   26.3310 C   0  0  0  0  0  0  0  0  0  0  0  0
    2.2244   -2.3747   24.9901 C   0  0  0  0  0  0  0  0  0  0  0  0
    1.9288   -3.3152   23.8572 C   0  0  0  0  0  0  0  0  0  0  0  0
    2.0936   -4.5232   23.8728 O   0  0  0  0  0  0  0  0  0  0  0  0
    1.4320   -2.6931   22.7717 O   0  0  0  0  0  0  0  0  0  0  0  0
   -1.8670   -2.9190   26.6008 N   0  0  0  0  0  0  0  0  0  0  0  0
   -2.3237   -4.3265   26.6184 C   0  0  2  0  0  0  0  0  0  0  0  0
   -3.7435   -4.2627   27.2775 C   0  0  0  0  0  0  0  0  0  0  0  0
   -4.0493   -4.9792   28.2344 O   0  0  0  0  0  0  0  0  0  0  0  0
   -1.2724   -5.3253   27.1935 C   0  0  2  0  0  0  0  0  0  0  0  0
   -0.2169   -5.6756   26.1061 C   0  0  0  0  0  0  0  0  0  0  0  0
   -1.9153   -6.6178   27.7205 C   0  0  0  0  0  0  0  0  0  0  0  0
    1.1193   -6.1590   26.6623 C   0  0  0  0  0  0  0  0  0  0  0  0
   -4.6157   -3.3148   26.8088 N   0  0  0  0  0  0  0  0  0  0  0  0
   -5.0164   -2.1862   27.6380 C   0  0  2  0  0  0  0  0  0  0  0  0
   -5.3597   -0.9839   26.7460 C   0  0  0  0  0  0  0  0  0  0  0  0
   -5.0109    0.1637   27.0159 O   0  0  0  0  0  0  0  0  0  0  0  0
   -3.9520   -1.8199   28.6832 C   0  0  0  0  0  0  0  0  0  0  0  0
   -4.4899   -1.7681   30.1224 C   0  0  0  0  0  0  0  0  0  0  0  0
   -3.7721   -0.7316   30.9857 C   0  0  0  0  0  0  0  0  0  0  0  0
   -2.8457    0.0783   30.2072 N   0  0  0  0  0  0  0  0  0  0  0  0
   -1.5050   -0.0386   30.3390 C   0  0  0  0  0  0  0  0  0  0  0  0
   -0.9841   -0.7676   29.3302 N   0  0  0  0  0  0  0  0  0  0  0  0
   -0.7958    0.4726   31.2752 N   0  0  0  0  0  0  0  0  0  0  0  0
   -6.1336   -1.2951   25.6517 N   0  0  0  0  0  0  0  0  0  0  0  0
   -6.6667   -0.2657   24.7670 C   0  0  2  0  0  0  0  0  0  0  0  0
   -7.5167    0.6596   25.6563 C   0  0  0  0  0  0  0  0  0  0  0  0
   -8.3095    0.2053   26.4768 O   0  0  0  0  0  0  0  0  0  0  0  0
   -7.5281   -0.8900   23.6577 C   0  0  0  0  0  0  0  0  0  0  0  0
   -7.9748    0.1319   22.6139 C   0  0  0  0  0  0  0  0  0  0  0  0
   -9.2063   -0.3550   21.8498 C   0  0  0  0  0  0  0  0  0  0  0  0
   -9.4823    0.5761   20.7653 N   0  0  0  0  0  0  0  0  0  0  0  0
   -8.4610    1.1450   20.0816 C   0  0  0  0  0  0  0  0  0  0  0  0
   -7.7108    0.2126   19.4606 N   0  0  0  0  0  0  0  0  0  0  0  0
   -8.2283    2.4026   20.0054 N   0  0  0  0  0  0  0  0  0  0  0  0
   -7.3183    2.0106   25.4563 N   0  0  0  0  0  0  0  0  0  0  0  0
   -8.4096    2.9754   25.5850 C   0  0  2  0  0  0  0  0  0  0  0  0
   -8.5660    3.6812   26.9604 C   0  0  0  0  0  0  0  0  0  0  0  0
   -9.6511    4.2130   27.2318 O   0  0  0  0  0  0  0  0  0  0  0  0
   -9.7618    2.4368   25.0560 C   0  0  1  0  0  0  0  0  0  0  0  0
  -10.0424    1.0309   25.5995 C   0  0  0  0  0  0  0  0  0  0  0  0
  -10.9508    3.3502   25.3458 C   0  0  0  0  0  0  0  0  0  0  0  0
   -7.5730    3.6727   27.9155 N   0  0  0  0  0  0  0  0  0  0  0  0
   -7.9258    3.7194   29.3463 C   0  0  2  0  0  0  0  0  0  0  0  0
   -8.1945    5.1837   29.7872 C   0  0  0  0  0  0  0  0  0  0  0  0
   -7.3737    6.0907   29.6546 O   0  0  0  0  0  0  0  0  0  0  0  0
   -6.7034    3.1208   30.0380 C   0  0  0  0  0  0  0  0  0  0  0  0
   -5.5544    3.6068   29.1651 C   0  0  0  0  0  0  0  0  0  0  0  0
   -6.1330    3.5635   27.7560 C   0  0  0  0  0  0  0  0  0  0  0  0
   -9.4271    5.3774   30.3713 N   0  0  0  0  0  0  0  0  0  0  0  0
   -9.7915    6.6054   31.0633 C   0  0  2  0  0  0  0  0  0  0  0  0
   -8.6350    6.9795   32.0123 C   0  0  0  0  0  0  0  0  0  0  0  0
   -7.6807    6.2375   32.2279 O   0  0  0  0  0  0  0  0  0  0  0  0
  -11.0935    6.3629   31.8320 C   0  0  0  0  0  0  0  0  0  0  0  0
  -12.3266    6.2995   30.9327 C   0  0  0  0  0  0  0  0  0  0  0  0
  -13.1633    5.0846   31.2355 C   0  0  0  0  0  0  0  0  0  0  0  0
  -13.0348    4.6916   32.5164 O   0  0  0  0  0  0  0  0  0  0  0  0
  -13.9066    4.4928   30.4747 O   0  0  0  0  0  0  0  0  0  0  0  0
   -8.7801    8.1924   32.6458 N   0  0  0  0  0  0  0  0  0  0  0  0
   -7.7831    9.2670   32.5266 C   0  0  2  0  0  0  0  0  0  0  0  0
   -8.1924   10.4214   33.4506 C   0  0  0  0  0  0  0  0  0  0  0  0
   -7.6289   11.4928   33.5992 O   0  0  0  0  0  0  0  0  0  0  0  0
   -7.6554    9.7633   31.0761 C   0  0  0  0  0  0  0  0  0  0  0  0
   -6.5329   10.7599   30.8983 C   0  0  0  0  0  0  0  0  0  0  0  0
   -5.7678   11.1616   32.0028 C   0  0  0  0  0  0  0  0  0  0  0  0
   -6.2565   11.3151   29.6415 C   0  0  0  0  0  0  0  0  0  0  0  0
   -4.7482   12.1024   31.8512 C   0  0  0  0  0  0  0  0  0  0  0  0
   -5.2322   12.2539   29.4916 C   0  0  0  0  0  0  0  0  0  0  0  0
   -4.4819   12.6492   30.5966 C   0  0  0  0  0  0  0  0  0  0  0  0
   -9.3204   10.1651   34.1618 O   0  0  0  0  0  0  0  0  0  0  0  0
   -1.1884    1.3710   31.5542 H   0  0  0  0  0  0  0  0  0  0  0  0
   -9.0083    2.9249   20.4023 H   0  0  0  0  0  0  0  0  0  0  0  0
  1  2  2  0
  1  3  1  0
  1  4  1  0
  4  5  1  0
  5  6  1  0
  5  8  1  6
  6  7  2  0
  6 13  1  0
  8  9  1  0
  9 10  1  0
 10 11  2  0
 10 12  1  0
 14 13  1  1
 14 15  1  0
 14 17  1  0
 15 16  2  0
 15 21  1  0
 17 18  1  0
 17 19  1  6
 18 20  1  0
 21 22  1  0
 22 23  1  0
 22 25  1  1
 23 24  2  0
 23 32  1  0
 25 26  1  0
 26 27  1  0
 27 28  1  0
 28 29  1  0
 29 30  1  0
 29 31  2  0
 32 33  1  0
 33 34  1  0
 33 36  1  6
 34 35  2  0
 34 43  1  0
 36 37  1  0
 37 38  1  0
 38 39  1  0
 39 40  1  0
 40 41  1  0
 40 42  2  0
 44 43  1  1
 44 45  1  0
 44 47  1  0
 45 46  2  0
 45 50  1  0
 47 48  1  1
 47 49  1  0
 50 51  1  0
 50 56  1  0
 51 52  1  1
 51 54  1  0
 52 53  2  0
 52 57  1  0
 54 55  1  0
 55 56  1  0
 57 58  1  0
 58 59  1  0
 58 61  1  1
 59 60  2  0
 59 66  1  0
 61 62  1  0
 62 63  1  0
 63 64  1  0
 63 65  2  0
 66 67  1  0
 67 68  1  0
 67 70  1  6
 68 69  2  0
 68 77  1  0
 70 71  1  0
 71 72  2  0
 71 73  1  0
 72 74  1  0
 73 75  2  0
 74 76  2  0
 75 76  1  0
 31 78  1  0
 42 79  1  0
M  END
$$$$
