
     RDKit          3D

 79 80  0  0  0  0  0  0  0  0999 V2000
    1.4244  -10.5239   25.4046 C   0  0  0  0  0  0  0  0  0  0  0  0
    2.5826  -10.1295   25.4041 O   0  0  0  0  0  0  0  0  0  0  0  0
    1.0821  -11.9911   25.3897 C   0  0  0  0  0  0  0  0  0  0  0  0
    0.3099   -9.7098   25.4256 N   0  0  0  0  0  0  0  0  0  0  0  0
    0.3354   -8.3086   24.9863 C   0  0  2  0  0  0  0  0  0  0  0  0
   -1.0060   -7.6594   25.4148 C   0  0  0  0  0  0  0  0  0  0  0  0
   -1.9458   -8.3157   25.8697 O   0  0  0  0  0  0  0  0  0  0  0  0
    0.6784   -8.1021   23.5060 C   0  0  0  0  0  0  0  0  0  0  0  0
    0.5684   -6.6495   23.0459 C   0  0  0  0  0  0  0  0  0  0  0  0
    1.8801   -6.1588   22.5038 C   0  0  0  0  0  0  0  0  0  0  0  0
    2.5438   -6.7070   21.6402 O   0  0  0  0  0  0  0  0  0  0  0  0
    2.2826   -5.0027   23.0637 O   0  0  0  0  0  0  0  0  0  0  0  0
   -1.0335   -6.2731   25.3185 N   0  0  0  0  0  0  0  0  0  0  0  0
   -2.0116   -5.4847   26.1006 C   0  0  2  0  0  0  0  0  0  0  0  0
   -1.7830   -4.0088   25.6277 C   0  0  0  0  0  0  0  0  0  0  0  0
   -1.0062   -3.7328   24.7095 O   0  0  0  0  0  0  0  0  0  0  0  0
   -1.9960   -5.7950   27.6293 C   0  0  2  0  0  0  0  0  0  0  0  0
   -0.5302   -5.8989   28.1389 C   0  0  0  0  0  0  0  0  0  0  0  0
   -2.7528   -7.0870   27.9754 C   0  0  0  0  0  0  0  0  0  0  0  0
   -0.3718   -5.6810   29.6410 C   0  0  0  0  0  0  0  0  0  0  0  0
   -2.5458   -3.0321   26.2135 N   0  0  0  0  0  0  0  0  0  0  0  0
   -3.6066   -2.3618   25.4739 C   0  0  2  0  0  0  0  0  0  0  0  0
   -4.7982   -2.0939   26.4052 C   0  0  0  0  0  0  0  0  0  0  0  0
   -5.7484   -2.8676   26.5064 O   0  0  0  0  0  0  0  0  0  0  0  0
   -4.0385   -3.1478   24.2268 C   0  0  0  0  0  0  0  0  0  0  0  0
   -2.9334   -3.2825   23.1666 C   0  0  0  0  0  0  0  0  0  0  0  0
   -3.3812   -4.0805   21.9428 C   0  0  0  0  0  0  0  0  0  0  0  0
   -2.3445   -4.1401   20.9221 N   0  0  0  0  0  0  0  0  0  0  0  0
   -2.5707   -3.7532   19.6463 C   0  0  0  0  0  0  0  0  0  0  0  0
   -3.0304   -4.7828   18.9055 N   0  0  0  0  0  0  0  0  0  0  0  0
   -2.3950   -2.5741   19.1777 N   0  0  0  0  0  0  0  0  0  0  0  0
   -4.7346   -0.8925   27.0727 N   0  0  0  0  0  0  0  0  0  0  0  0
   -5.7027   -0.5300   28.1012 C   0  0  2  0  0  0  0  0  0  0  0  0
   -6.9869   -0.1291   27.3528 C   0  0  0  0  0  0  0  0  0  0  0  0
   -7.1090   -0.3207   26.1460 O   0  0  0  0  0  0  0  0  0  0  0  0
   -5.1851    0.6408   28.9518 C   0  0  0  0  0  0  0  0  0  0  0  0
   -4.0988    0.2165   29.9384 C   0  0  0  0  0  0  0  0  0  0  0  0
   -4.4875    0.5613   31.3763 C   0  0  0  0  0  0  0  0  0  0  0  0
   -3.9852   -0.4814   32.2595 N   0  0  0  0  0  0  0  0  0  0  0  0
   -3.9716   -1.7718   31.8486 C   0  0  0  0  0  0  0  0  0  0  0  0
   -2.8072   -2.0778   31.2416 N   0  0  0  0  0  0  0  0  0  0  0  0
   -4.9210   -2.6150   32.0187 N   0  0  0  0  0  0  0  0  0  0  0  0
   -7.9647    0.4518   28.1345 N   0  0  0  0  0  0  0  0  0  0  0  0
   -8.5380    1.7561   27.8053 C   0  0  2  0  0  0  0  0  0  0  0  0
   -8.7182    2.7612   28.9766 C   0  0  0  0  0  0  0  0  0  0  0  0
   -9.1720    2.3424   30.0501 O   0  0  0  0  0  0  0  0  0  0  0  0
   -9.8116    1.6561   26.9299 C   0  0  1  0  0  0  0  0  0  0  0  0
  -10.3741    3.0483   26.6194 C   0  0  0  0  0  0  0  0  0  0  0  0
   -9.6137    0.8769   25.6316 C   0  0  0  0  0  0  0  0  0  0  0  0
   -8.3236    4.0786   28.8907 N   0  0  0  0  0  0  0  0  0  0  0  0
   -7.9995    4.8323   30.1157 C   0  0  2  0  0  0  0  0  0  0  0  0
   -9.2974    5.3718   30.7754 C   0  0  0  0  0  0  0  0  0  0  0  0
  -10.4260    5.0994   30.3679 O   0  0  0  0  0  0  0  0  0  0  0  0
   -7.0925    5.9551   29.6178 C   0  0  0  0  0  0  0  0  0  0  0  0
   -7.6730    6.2696   28.2458 C   0  0  0  0  0  0  0  0  0  0  0  0
   -8.1006    4.9059   27.7174 C   0  0  0  0  0  0  0  0  0  0  0  0
   -9.0769    6.2115   31.8450 N   0  0  0  0  0  0  0  0  0  0  0  0
  -10.1405    6.6602   32.7321 C   0  0  2  0  0  0  0  0  0  0  0  0
   -9.7923    8.0835   33.2130 C   0  0  0  0  0  0  0  0  0  0  0  0
  -10.4485    8.6814   34.0613 O   0  0  0  0  0  0  0  0  0  0  0  0
  -10.2426    5.6801   33.9043 C   0  0  0  0  0  0  0  0  0  0  0  0
  -11.2453    6.1131   34.9722 C   0  0  0  0  0  0  0  0  0  0  0  0
  -12.6544    6.0908   34.4415 C   0  0  0  0  0  0  0  0  0  0  0  0
  -13.4224    7.0368   35.0134 O   0  0  0  0  0  0  0  0  0  0  0  0
  -13.1082    5.3551   33.5846 O   0  0  0  0  0  0  0  0  0  0  0  0
   -8.7162    8.6584   32.5768 N   0  0  0  0  0  0  0  0  0  0  0  0
   -8.7621   10.0230   32.0300 C   0  0  2  0  0  0  0  0  0  0  0  0
   -8.4697   11.0159   33.1625 C   0  0  0  0  0  0  0  0  0  0  0  0
   -8.2080   10.7628   34.3265 O   0  0  0  0  0  0  0  0  0  0  0  0
  -10.1259   10.3309   31.3884 C   0  0  0  0  0  0  0  0  0  0  0  0
  -10.1629   11.6869   30.7216 C   0  0  0  0  0  0  0  0  0  0  0  0
   -9.0469   12.5336   30.7876 C   0  0  0  0  0  0  0  0  0  0  0  0
  -11.3129   12.1286   30.0535 C   0  0  0  0  0  0  0  0  0  0  0  0
   -9.0837   13.7981   30.1983 C   0  0  0  0  0  0  0  0  0  0  0  0
  -11.3458   13.3937   29.4606 C   0  0  0  0  0  0  0  0  0  0  0  0
  -10.2332   14.2282   29.5367 C   0  0  0  0  0  0  0  0  0  0  0  0
   -8.5223   12.3134   32.7652 O   0  0  0  0  0  0  0  0  0  0  0  0
   -1.4845   -2.5155   18.7231 H   0  0  0  0  0  0  0  0  0  0  0  0
   -5.0493   -2.7978   33.0131 H   0  0  0  0  0  0  0  0  0  0  0  0
  1  2  2  0
  1  3  1  0
  1  4  1  0
  4  5  1  0
  5  6  1  0
  5  8  1  6
  6  7  2  0
  6 13  1  0
  8  9  1  0
  9 10  1  0
 10 11  2  0
 10 12  1  0
 14 13  1  6
 14 15  1  0
 14 17  1  0
 15 16  2  0
 15 21  1  0
 17 18  1  0
 17 19  1  6
 18 20  1  0
 21 22  1  0
 22 23  1  0
 22 25  1  6
 23 24  2  0
 23 32  1  0
 25 26  1  0
 26 27  1  0
 27 28  1  0
 28 29  1  0
 29 30  1  0
 29 31  2  0
 32 33  1  0
 33 34  1  0
 33 36  1  6
 34 35  2  0
 34 43  1  0
 36 37  1  0
 37 38  1  0
 38 39  1  0
 39 40  1  0
 40 41  1  0
 40 42  2  0
 44 43  1  1
 44 45  1  0
 44 47  1  0
 45 46  2  0
 45 50  1  0
 47 48  1  6
 47 49  1  0
 50 51  1  0
 50 56  1  0
 51 52  1  6
 51 54  1  0
 52 53  2  0
 52 57  1  0
 54 55  1  0
 55 56  1  0
 57 58  1  0
 58 59  1  0
 58 61  1  1
 59 60  2  0
 59 66  1  0
 61 62  1  0
 62 63  1  0
 63 64  1  0
 63 65  2  0
 66 67  1  0
 67 68  1  0
 67 70  1  1
 68 69  2  0
 68 77  1  0
 70 71  1  0
 71 72  2  0
 71 73  1  0
 72 74  1  0
 73 75  2  0
 74 76  2  0
 75 76  1  0
 31 78  1  0
 42 79  1  0
M  END
$$$$
