
     RDKit          3D

 79 80  0  0  0  0  0  0  0  0999 V2000
   -9.5090   12.3881   31.6630 C   0  0  0  0  0  0  0  0  0  0  0  0
  -10.3708   12.6605   32.4876 O   0  0  0  0  0  0  0  0  0  0  0  0
   -8.3126   13.2757   31.4377 C   0  0  0  0  0  0  0  0  0  0  0  0
   -9.5081   11.2666   30.8584 N   0  0  0  0  0  0  0  0  0  0  0  0
   -8.8304   10.0176   31.2291 C   0  0  2  0  0  0  0  0  0  0  0  0
   -9.0949    8.9886   30.0996 C   0  0  0  0  0  0  0  0  0  0  0  0
   -9.8563    9.2183   29.1571 O   0  0  0  0  0  0  0  0  0  0  0  0
   -9.1612    9.4954   32.6325 C   0  0  0  0  0  0  0  0  0  0  0  0
  -10.5964    9.7793   33.0721 C   0  0  0  0  0  0  0  0  0  0  0  0
  -10.8509    9.2401   34.4504 C   0  0  0  0  0  0  0  0  0  0  0  0
  -10.0354    8.6671   35.1528 O   0  0  0  0  0  0  0  0  0  0  0  0
  -12.1084    9.4585   34.8780 O   0  0  0  0  0  0  0  0  0  0  0  0
   -8.3456    7.8217   30.1944 N   0  0  0  0  0  0  0  0  0  0  0  0
   -7.6344    7.2873   29.0118 C   0  0  2  0  0  0  0  0  0  0  0  0
   -8.0026    5.7646   28.9963 C   0  0  0  0  0  0  0  0  0  0  0  0
   -7.8202    5.0412   29.9792 O   0  0  0  0  0  0  0  0  0  0  0  0
   -6.1311    7.6977   28.9391 C   0  0  2  0  0  0  0  0  0  0  0  0
   -6.0007    9.2472   28.9094 C   0  0  0  0  0  0  0  0  0  0  0  0
   -5.4159    7.0987   27.7178 C   0  0  0  0  0  0  0  0  0  0  0  0
   -4.5622    9.7558   28.9336 C   0  0  0  0  0  0  0  0  0  0  0  0
   -8.6207    5.2753   27.8750 N   0  0  0  0  0  0  0  0  0  0  0  0
   -8.8140    3.8438   27.6871 C   0  0  2  0  0  0  0  0  0  0  0  0
   -7.4536    3.1585   27.4906 C   0  0  0  0  0  0  0  0  0  0  0  0
   -6.5232    3.6907   26.8884 O   0  0  0  0  0  0  0  0  0  0  0  0
   -9.7703    3.5289   26.5270 C   0  0  0  0  0  0  0  0  0  0  0  0
   -9.0701    3.4046   25.1640 C   0  0  0  0  0  0  0  0  0  0  0  0
   -9.2791    2.0377   24.5137 C   0  0  0  0  0  0  0  0  0  0  0  0
   -8.5287    1.9042   23.2730 N   0  0  0  0  0  0  0  0  0  0  0  0
   -8.6412    2.8003   22.2665 C   0  0  0  0  0  0  0  0  0  0  0  0
   -9.9293    2.9435   21.8914 N   0  0  0  0  0  0  0  0  0  0  0  0
   -7.6770    3.4509   21.7301 N   0  0  0  0  0  0  0  0  0  0  0  0
   -7.3856    1.8817   27.9989 N   0  0  0  0  0  0  0  0  0  0  0  0
   -6.2787    1.4459   28.8423 C   0  0  2  0  0  0  0  0  0  0  0  0
   -6.4780   -0.0654   29.0568 C   0  0  0  0  0  0  0  0  0  0  0  0
   -7.5087   -0.5092   29.5556 O   0  0  0  0  0  0  0  0  0  0  0  0
   -6.2904    2.1889   30.1877 C   0  0  0  0  0  0  0  0  0  0  0  0
   -7.5744    1.9512   30.9803 C   0  0  0  0  0  0  0  0  0  0  0  0
   -7.2831    1.2845   32.3250 C   0  0  0  0  0  0  0  0  0  0  0  0
   -6.1705    1.9769   32.9591 N   0  0  0  0  0  0  0  0  0  0  0  0
   -6.3820    3.1390   33.6216 C   0  0  0  0  0  0  0  0  0  0  0  0
   -5.2674    3.5443   34.2629 N   0  0  0  0  0  0  0  0  0  0  0  0
   -7.4824    3.7948   33.6372 N   0  0  0  0  0  0  0  0  0  0  0  0
   -5.4243   -0.8596   28.6524 N   0  0  0  0  0  0  0  0  0  0  0  0
   -5.5038   -1.6895   27.4511 C   0  0  2  0  0  0  0  0  0  0  0  0
   -4.2943   -2.6196   27.1572 C   0  0  0  0  0  0  0  0  0  0  0  0
   -3.4981   -2.2905   26.2676 O   0  0  0  0  0  0  0  0  0  0  0  0
   -5.9414   -0.8979   26.1940 C   0  0  1  0  0  0  0  0  0  0  0  0
   -6.0464   -1.8206   24.9741 C   0  0  0  0  0  0  0  0  0  0  0  0
   -7.2455   -0.1231   26.3703 C   0  0  0  0  0  0  0  0  0  0  0  0
   -4.0333   -3.7528   27.8964 N   0  0  0  0  0  0  0  0  0  0  0  0
   -2.6419   -4.1181   28.2195 C   0  0  2  0  0  0  0  0  0  0  0  0
   -1.9921   -4.8712   27.0273 C   0  0  0  0  0  0  0  0  0  0  0  0
   -2.6290   -5.5767   26.2458 O   0  0  0  0  0  0  0  0  0  0  0  0
   -2.7800   -5.0013   29.4572 C   0  0  0  0  0  0  0  0  0  0  0  0
   -4.0860   -5.7394   29.1966 C   0  0  0  0  0  0  0  0  0  0  0  0
   -4.9553   -4.6952   28.5069 C   0  0  0  0  0  0  0  0  0  0  0  0
   -0.6275   -4.7062   26.9351 N   0  0  0  0  0  0  0  0  0  0  0  0
    0.1014   -4.8233   25.6803 C   0  0  2  0  0  0  0  0  0  0  0  0
    0.9835   -6.0859   25.7568 C   0  0  0  0  0  0  0  0  0  0  0  0
    1.0304   -6.9236   24.8603 O   0  0  0  0  0  0  0  0  0  0  0  0
    0.9444   -3.5595   25.4873 C   0  0  0  0  0  0  0  0  0  0  0  0
    1.8591   -3.6207   24.2655 C   0  0  0  0  0  0  0  0  0  0  0  0
    1.5129   -2.5471   23.2678 C   0  0  0  0  0  0  0  0  0  0  0  0
    1.9857   -1.3430   23.6398 O   0  0  0  0  0  0  0  0  0  0  0  0
    0.9059   -2.6810   22.2212 O   0  0  0  0  0  0  0  0  0  0  0  0
    1.6774   -6.2323   26.9360 N   0  0  0  0  0  0  0  0  0  0  0  0
    2.5930   -7.3580   27.1759 C   0  0  2  0  0  0  0  0  0  0  0  0
    3.8192   -7.1957   26.2681 C   0  0  0  0  0  0  0  0  0  0  0  0
    3.9787   -6.3878   25.3685 O   0  0  0  0  0  0  0  0  0  0  0  0
    1.9092   -8.7108   26.9133 C   0  0  0  0  0  0  0  0  0  0  0  0
    0.4090   -8.5878   26.7751 C   0  0  0  0  0  0  0  0  0  0  0  0
   -0.2146   -7.3454   26.9596 C   0  0  0  0  0  0  0  0  0  0  0  0
   -0.3810   -9.7093   26.4882 C   0  0  0  0  0  0  0  0  0  0  0  0
   -1.6019   -7.2298   26.8611 C   0  0  0  0  0  0  0  0  0  0  0  0
   -1.7697   -9.5901   26.3860 C   0  0  0  0  0  0  0  0  0  0  0  0
   -2.3787   -8.3519   26.5761 C   0  0  0  0  0  0  0  0  0  0  0  0
    4.8112   -8.0813   26.5430 O   0  0  0  0  0  0  0  0  0  0  0  0
   -6.8027    2.9436   21.8622 H   0  0  0  0  0  0  0  0  0  0  0  0
   -8.2266    3.2156   34.0239 H   0  0  0  0  0  0  0  0  0  0  0  0
  1  2  2  0
  1  3  1  0
  1  4  1  0
  4  5  1  0
  5  6  1  0
  5  8  1  1
  6  7  2  0
  6 13  1  0
  8  9  1  0
  9 10  1  0
 10 11  2  0
 10 12  1  0
 14 13  1  1
 14 15  1  0
 14 17  1  0
 15 16  2  0
 15 21  1  0
 17 18  1  0
 17 19  1  6
 18 20  1  0
 21 22  1  0
 22 23  1  0
 22 25  1  6
 23 24  2  0
 23 32  1  0
 25 26  1  0
 26 27  1  0
 27 28  1  0
 28 29  1  0
 29 30  1  0
 29 31  2  0
 32 33  1  0
 33 34  1  0
 33 36  1  1
 34 35  2  0
 34 43  1  0
 36 37  1  0
 37 38  1  0
 38 39  1  0
 39 40  1  0
 40 41  1  0
 40 42  2  0
 44 43  1  1
 44 45  1  0
 44 47  1  0
 45 46  2  0
 45 50  1  0
 47 48  1  6
 47 49  1  0
 50 51  1  0
 50 56  1  0
 51 52  1  6
 51 54  1  0
 52 53  2  0
 52 57  1  0
 54 55  1  0
 55 56  1  0
 57 58  1  0
 58 59  1  0
 58 61  1  1
 59 60  2  0
 59 66  1  0
 61 62  1  0
 62 63  1  0
 63 64  1  0
 63 65  2  0
 66 67  1  0
 67 68  1  0
 67 70  1  6
 68 69  2  0
 68 77  1  0
 70 71  1  0
 71 72  2  0
 71 73  1  0
 72 74  1  0
 73 75  2  0
 74 76  2  0
 75 76  1  0
 31 78  1  0
 42 79  1  0
M  END
$$$$
