
     RDKit          3D

 79 80  0  0  0  0  0  0  0  0999 V2000
   -1.3848  -11.6239   27.7462 C   0  0  0  0  0  0  0  0  0  0  0  0
   -0.7955  -12.1250   26.7983 O   0  0  0  0  0  0  0  0  0  0  0  0
   -1.3241  -12.2209   29.1282 C   0  0  0  0  0  0  0  0  0  0  0  0
   -2.1537  -10.4792   27.6860 N   0  0  0  0  0  0  0  0  0  0  0  0
   -2.0367   -9.3858   28.6595 C   0  0  2  0  0  0  0  0  0  0  0  0
   -1.5932   -8.1167   27.8868 C   0  0  0  0  0  0  0  0  0  0  0  0
   -1.3007   -7.0619   28.4548 O   0  0  0  0  0  0  0  0  0  0  0  0
   -1.1681   -9.7011   29.8832 C   0  0  0  0  0  0  0  0  0  0  0  0
   -1.9037   -9.5547   31.2141 C   0  0  0  0  0  0  0  0  0  0  0  0
   -0.9703   -9.7773   32.3692 C   0  0  0  0  0  0  0  0  0  0  0  0
   -1.2824   -9.7740   33.5480 O   0  0  0  0  0  0  0  0  0  0  0  0
    0.2997  -10.0038   31.9848 O   0  0  0  0  0  0  0  0  0  0  0  0
   -1.4767   -8.2886   26.5125 N   0  0  0  0  0  0  0  0  0  0  0  0
   -1.0802   -7.1573   25.6446 C   0  0  2  0  0  0  0  0  0  0  0  0
   -1.9335   -5.9525   26.1686 C   0  0  0  0  0  0  0  0  0  0  0  0
   -3.1322   -6.0718   26.4360 O   0  0  0  0  0  0  0  0  0  0  0  0
   -1.1060   -7.4901   24.1208 C   0  0  2  0  0  0  0  0  0  0  0  0
   -1.2341   -6.1815   23.2899 C   0  0  0  0  0  0  0  0  0  0  0  0
   -2.2468   -8.4495   23.7470 C   0  0  0  0  0  0  0  0  0  0  0  0
   -1.7026   -6.3945   21.8533 C   0  0  0  0  0  0  0  0  0  0  0  0
   -1.2800   -4.7711   26.4058 N   0  0  0  0  0  0  0  0  0  0  0  0
   -1.6992   -3.5365   25.7565 C   0  0  2  0  0  0  0  0  0  0  0  0
   -3.1889   -3.2852   26.0334 C   0  0  0  0  0  0  0  0  0  0  0  0
   -4.0671   -3.5245   25.2069 O   0  0  0  0  0  0  0  0  0  0  0  0
   -1.4041   -3.5377   24.2490 C   0  0  0  0  0  0  0  0  0  0  0  0
   -1.9266   -2.2920   23.5151 C   0  0  0  0  0  0  0  0  0  0  0  0
   -0.8452   -1.5924   22.6927 C   0  0  0  0  0  0  0  0  0  0  0  0
   -1.3886   -0.9748   21.4913 N   0  0  0  0  0  0  0  0  0  0  0  0
   -2.7187   -0.9114   21.2560 C   0  0  0  0  0  0  0  0  0  0  0  0
   -3.2020   -2.1187   20.8968 N   0  0  0  0  0  0  0  0  0  0  0  0
   -3.4505    0.1344   21.3637 N   0  0  0  0  0  0  0  0  0  0  0  0
   -3.4480   -2.7215   27.2615 N   0  0  0  0  0  0  0  0  0  0  0  0
   -4.8016   -2.3793   27.6823 C   0  0  2  0  0  0  0  0  0  0  0  0
   -5.2886   -1.2948   26.7044 C   0  0  0  0  0  0  0  0  0  0  0  0
   -5.9751   -1.5784   25.7264 O   0  0  0  0  0  0  0  0  0  0  0  0
   -4.8086   -1.8489   29.1248 C   0  0  0  0  0  0  0  0  0  0  0  0
   -6.1891   -1.3687   29.5688 C   0  0  0  0  0  0  0  0  0  0  0  0
   -6.1925   -0.9736   31.0457 C   0  0  0  0  0  0  0  0  0  0  0  0
   -7.5217   -0.4964   31.3992 N   0  0  0  0  0  0  0  0  0  0  0  0
   -8.1931    0.3280   30.5604 C   0  0  0  0  0  0  0  0  0  0  0  0
   -7.3535    1.1807   29.9393 N   0  0  0  0  0  0  0  0  0  0  0  0
   -9.4574    0.3076   30.3540 N   0  0  0  0  0  0  0  0  0  0  0  0
   -4.8958   -0.0080   27.0119 N   0  0  0  0  0  0  0  0  0  0  0  0
   -5.3612    1.1432   26.2396 C   0  0  2  0  0  0  0  0  0  0  0  0
   -5.8439    2.3816   27.0445 C   0  0  0  0  0  0  0  0  0  0  0  0
   -6.9332    2.3178   27.6303 O   0  0  0  0  0  0  0  0  0  0  0  0
   -6.3582    0.7594   25.1185 C   0  0  1  0  0  0  0  0  0  0  0  0
   -6.7956    1.9972   24.3264 C   0  0  0  0  0  0  0  0  0  0  0  0
   -5.8356   -0.3093   24.1611 C   0  0  0  0  0  0  0  0  0  0  0  0
   -5.0752    3.5154   27.1929 N   0  0  0  0  0  0  0  0  0  0  0  0
   -5.4101    4.5019   28.2361 C   0  0  2  0  0  0  0  0  0  0  0  0
   -6.5320    5.4527   27.7380 C   0  0  0  0  0  0  0  0  0  0  0  0
   -6.9302    5.4764   26.5740 O   0  0  0  0  0  0  0  0  0  0  0  0
   -4.0922    5.2350   28.4745 C   0  0  0  0  0  0  0  0  0  0  0  0
   -3.4690    5.2615   27.0855 C   0  0  0  0  0  0  0  0  0  0  0  0
   -3.8704    3.9185   26.4879 C   0  0  0  0  0  0  0  0  0  0  0  0
   -7.0268    6.2951   28.7093 N   0  0  0  0  0  0  0  0  0  0  0  0
   -7.9915    7.3485   28.4275 C   0  0  2  0  0  0  0  0  0  0  0  0
   -8.4259    7.9696   29.7705 C   0  0  0  0  0  0  0  0  0  0  0  0
   -9.3002    8.8272   29.8584 O   0  0  0  0  0  0  0  0  0  0  0  0
   -9.1796    6.7338   27.6820 C   0  0  0  0  0  0  0  0  0  0  0  0
   -9.6181    5.3840   28.2468 C   0  0  0  0  0  0  0  0  0  0  0  0
  -10.7750    4.8146   27.4689 C   0  0  0  0  0  0  0  0  0  0  0  0
  -11.0875    5.5750   26.4031 O   0  0  0  0  0  0  0  0  0  0  0  0
  -11.3847    3.7869   27.7003 O   0  0  0  0  0  0  0  0  0  0  0  0
   -7.7180    7.5274   30.8645 N   0  0  0  0  0  0  0  0  0  0  0  0
   -7.6568    8.2875   32.1221 C   0  0  2  0  0  0  0  0  0  0  0  0
   -6.1883    8.6051   32.4330 C   0  0  0  0  0  0  0  0  0  0  0  0
   -5.2871    7.8155   32.6608 O   0  0  0  0  0  0  0  0  0  0  0  0
   -8.2931    7.5089   33.2865 C   0  0  0  0  0  0  0  0  0  0  0  0
   -9.7010    7.0516   32.9807 C   0  0  0  0  0  0  0  0  0  0  0  0
  -10.7842    7.9139   33.2030 C   0  0  0  0  0  0  0  0  0  0  0  0
   -9.9484    5.7592   32.4984 C   0  0  0  0  0  0  0  0  0  0  0  0
  -12.0891    7.4888   32.9495 C   0  0  0  0  0  0  0  0  0  0  0  0
  -11.2557    5.3373   32.2413 C   0  0  0  0  0  0  0  0  0  0  0  0
  -12.3244    6.2008   32.4705 C   0  0  0  0  0  0  0  0  0  0  0  0
   -5.9178    9.9358   32.4430 O   0  0  0  0  0  0  0  0  0  0  0  0
   -2.8606    0.9594   21.4659 H   0  0  0  0  0  0  0  0  0  0  0  0
   -9.8111    1.2598   30.2699 H   0  0  0  0  0  0  0  0  0  0  0  0
  1  2  2  0
  1  3  1  0
  1  4  1  0
  4  5  1  0
  5  6  1  0
  5  8  1  1
  6  7  2  0
  6 13  1  0
  8  9  1  0
  9 10  1  0
 10 11  2  0
 10 12  1  0
 14 13  1  1
 14 15  1  0
 14 17  1  0
 15 16  2  0
 15 21  1  0
 17 18  1  0
 17 19  1  1
 18 20  1  0
 21 22  1  0
 22 23  1  0
 22 25  1  6
 23 24  2  0
 23 32  1  0
 25 26  1  0
 26 27  1  0
 27 28  1  0
 28 29  1  0
 29 30  1  0
 29 31  2  0
 32 33  1  0
 33 34  1  0
 33 36  1  1
 34 35  2  0
 34 43  1  0
 36 37  1  0
 37 38  1  0
 38 39  1  0
 39 40  1  0
 40 41  1  0
 40 42  2  0
 44 43  1  1
 44 45  1  0
 44 47  1  0
 45 46  2  0
 45 50  1  0
 47 48  1  6
 47 49  1  0
 50 51  1  0
 50 56  1  0
 51 52  1  6
 51 54  1  0
 52 53  2  0
 52 57  1  0
 54 55  1  0
 55 56  1  0
 57 58  1  0
 58 59  1  0
 58 61  1  1
 59 60  2  0
 59 66  1  0
 61 62  1  0
 62 63  1  0
 63 64  1  0
 63 65  2  0
 66 67  1  0
 67 68  1  0
 67 70  1  1
 68 69  2  0
 68 77  1  0
 70 71  1  0
 71 72  2  0
 71 73  1  0
 72 74  1  0
 73 75  2  0
 74 76  2  0
 75 76  1  0
 31 78  1  0
 42 79  1  0
M  END
$$$$
