
     RDKit          3D

 79 80  0  0  0  0  0  0  0  0999 V2000
   -6.0861   11.9016   31.5797 C   0  0  0  0  0  0  0  0  0  0  0  0
   -7.0316   12.6556   31.3939 O   0  0  0  0  0  0  0  0  0  0  0  0
   -4.7020   12.4173   31.8771 C   0  0  0  0  0  0  0  0  0  0  0  0
   -6.1540   10.5233   31.5512 N   0  0  0  0  0  0  0  0  0  0  0  0
   -4.9768    9.6692   31.3467 C   0  0  2  0  0  0  0  0  0  0  0  0
   -4.8876    9.3502   29.8319 C   0  0  0  0  0  0  0  0  0  0  0  0
   -4.3010   10.0834   29.0324 O   0  0  0  0  0  0  0  0  0  0  0  0
   -4.9154    8.4283   32.2456 C   0  0  0  0  0  0  0  0  0  0  0  0
   -3.5901    7.6731   32.1620 C   0  0  0  0  0  0  0  0  0  0  0  0
   -3.5856    6.4947   33.0929 C   0  0  0  0  0  0  0  0  0  0  0  0
   -4.3365    5.5360   33.0319 O   0  0  0  0  0  0  0  0  0  0  0  0
   -2.6337    6.5757   34.0412 O   0  0  0  0  0  0  0  0  0  0  0  0
   -5.4527    8.1350   29.4633 N   0  0  0  0  0  0  0  0  0  0  0  0
   -5.0346    7.4597   28.2147 C   0  0  2  0  0  0  0  0  0  0  0  0
   -5.8447    6.1188   28.2119 C   0  0  0  0  0  0  0  0  0  0  0  0
   -5.6694    5.2512   29.0716 O   0  0  0  0  0  0  0  0  0  0  0  0
   -3.4887    7.4042   28.0130 C   0  0  2  0  0  0  0  0  0  0  0  0
   -3.0095    8.6458   27.2080 C   0  0  0  0  0  0  0  0  0  0  0  0
   -3.0340    6.1220   27.2982 C   0  0  0  0  0  0  0  0  0  0  0  0
   -1.5081    8.6758   26.9368 C   0  0  0  0  0  0  0  0  0  0  0  0
   -6.8258    5.9752   27.2656 N   0  0  0  0  0  0  0  0  0  0  0  0
   -7.6999    4.8101   27.2596 C   0  0  2  0  0  0  0  0  0  0  0  0
   -7.6691    4.1462   25.8748 C   0  0  0  0  0  0  0  0  0  0  0  0
   -8.0731    4.7098   24.8596 O   0  0  0  0  0  0  0  0  0  0  0  0
   -9.1363    5.1529   27.6823 C   0  0  0  0  0  0  0  0  0  0  0  0
   -9.8533    4.0110   28.4211 C   0  0  0  0  0  0  0  0  0  0  0  0
   -9.9921    4.2712   29.9204 C   0  0  0  0  0  0  0  0  0  0  0  0
  -10.1441    5.6890   30.2155 N   0  0  0  0  0  0  0  0  0  0  0  0
  -10.2828    6.1477   31.4800 C   0  0  0  0  0  0  0  0  0  0  0  0
   -9.1664    5.9157   32.2012 N   0  0  0  0  0  0  0  0  0  0  0  0
  -11.3155    6.7384   31.9547 N   0  0  0  0  0  0  0  0  0  0  0  0
   -7.2014    2.8522   25.8790 N   0  0  0  0  0  0  0  0  0  0  0  0
   -7.0883    2.0697   24.6538 C   0  0  2  0  0  0  0  0  0  0  0  0
   -7.9314    0.8019   24.8805 C   0  0  0  0  0  0  0  0  0  0  0  0
   -9.0591    0.6917   24.4070 O   0  0  0  0  0  0  0  0  0  0  0  0
   -5.6227    1.7012   24.3732 C   0  0  0  0  0  0  0  0  0  0  0  0
   -5.4779    0.6793   23.2471 C   0  0  0  0  0  0  0  0  0  0  0  0
   -4.4530    1.1368   22.2089 C   0  0  0  0  0  0  0  0  0  0  0  0
   -3.1177    0.9670   22.7634 N   0  0  0  0  0  0  0  0  0  0  0  0
   -2.0277    1.1820   21.9890 C   0  0  0  0  0  0  0  0  0  0  0  0
   -2.3803    1.5982   20.7560 N   0  0  0  0  0  0  0  0  0  0  0  0
   -0.8111    1.0335   22.3620 N   0  0  0  0  0  0  0  0  0  0  0  0
   -7.3273   -0.1759   25.6444 N   0  0  0  0  0  0  0  0  0  0  0  0
   -7.4436   -0.1942   27.1020 C   0  0  2  0  0  0  0  0  0  0  0  0
   -6.7431   -1.3628   27.8490 C   0  0  0  0  0  0  0  0  0  0  0  0
   -6.8656   -1.4356   29.0792 O   0  0  0  0  0  0  0  0  0  0  0  0
   -8.8949    0.0199   27.5980 C   0  0  1  0  0  0  0  0  0  0  0  0
   -8.9877   -0.1634   29.1175 C   0  0  0  0  0  0  0  0  0  0  0  0
   -9.4946    1.3673   27.2021 C   0  0  0  0  0  0  0  0  0  0  0  0
   -6.0569   -2.3592   27.1895 N   0  0  0  0  0  0  0  0  0  0  0  0
   -6.3811   -3.7738   27.4491 C   0  0  2  0  0  0  0  0  0  0  0  0
   -5.6567   -4.2659   28.7313 C   0  0  0  0  0  0  0  0  0  0  0  0
   -6.1933   -4.3043   29.8379 O   0  0  0  0  0  0  0  0  0  0  0  0
   -5.8900   -4.4916   26.1942 C   0  0  0  0  0  0  0  0  0  0  0  0
   -4.6511   -3.6917   25.8153 C   0  0  0  0  0  0  0  0  0  0  0  0
   -5.0299   -2.2581   26.1667 C   0  0  0  0  0  0  0  0  0  0  0  0
   -4.3435   -4.6302   28.5299 N   0  0  0  0  0  0  0  0  0  0  0  0
   -3.5189   -5.2278   29.5703 C   0  0  2  0  0  0  0  0  0  0  0  0
   -2.6098   -4.1257   30.1508 C   0  0  0  0  0  0  0  0  0  0  0  0
   -2.7033   -3.7224   31.3069 O   0  0  0  0  0  0  0  0  0  0  0  0
   -2.6998   -6.3633   28.9500 C   0  0  0  0  0  0  0  0  0  0  0  0
   -3.5408   -7.5796   28.5672 C   0  0  0  0  0  0  0  0  0  0  0  0
   -3.6261   -8.5656   29.7022 C   0  0  0  0  0  0  0  0  0  0  0  0
   -4.6513   -8.2921   30.5304 O   0  0  0  0  0  0  0  0  0  0  0  0
   -2.9084   -9.5291   29.8976 O   0  0  0  0  0  0  0  0  0  0  0  0
   -1.7160   -3.5859   29.2546 N   0  0  0  0  0  0  0  0  0  0  0  0
   -0.7076   -2.5914   29.6508 C   0  0  2  0  0  0  0  0  0  0  0  0
    0.1291   -2.2227   28.4188 C   0  0  0  0  0  0  0  0  0  0  0  0
    1.3287   -2.3748   28.2598 O   0  0  0  0  0  0  0  0  0  0  0  0
    0.2003   -3.1212   30.7741 C   0  0  0  0  0  0  0  0  0  0  0  0
   -0.5729   -3.5090   32.0137 C   0  0  0  0  0  0  0  0  0  0  0  0
   -1.0389   -4.8223   32.1695 C   0  0  0  0  0  0  0  0  0  0  0  0
   -0.8576   -2.5638   33.0085 C   0  0  0  0  0  0  0  0  0  0  0  0
   -1.7775   -5.1806   33.2982 C   0  0  0  0  0  0  0  0  0  0  0  0
   -1.5938   -2.9261   34.1398 C   0  0  0  0  0  0  0  0  0  0  0  0
   -2.0559   -4.2324   34.2817 C   0  0  0  0  0  0  0  0  0  0  0  0
   -0.6032   -1.6655   27.4202 O   0  0  0  0  0  0  0  0  0  0  0  0
  -11.9093    7.0617   31.1918 H   0  0  0  0  0  0  0  0  0  0  0  0
   -0.7621    0.9935   23.3792 H   0  0  0  0  0  0  0  0  0  0  0  0
  1  2  2  0
  1  3  1  0
  1  4  1  0
  4  5  1  0
  5  6  1  0
  5  8  1  1
  6  7  2  0
  6 13  1  0
  8  9  1  0
  9 10  1  0
 10 11  2  0
 10 12  1  0
 14 13  1  1
 14 15  1  0
 14 17  1  0
 15 16  2  0
 15 21  1  0
 17 18  1  0
 17 19  1  6
 18 20  1  0
 21 22  1  0
 22 23  1  0
 22 25  1  6
 23 24  2  0
 23 32  1  0
 25 26  1  0
 26 27  1  0
 27 28  1  0
 28 29  1  0
 29 30  1  0
 29 31  2  0
 32 33  1  0
 33 34  1  0
 33 36  1  1
 34 35  2  0
 34 43  1  0
 36 37  1  0
 37 38  1  0
 38 39  1  0
 39 40  1  0
 40 41  1  0
 40 42  2  0
 44 43  1  6
 44 45  1  0
 44 47  1  0
 45 46  2  0
 45 50  1  0
 47 48  1  1
 47 49  1  0
 50 51  1  0
 50 56  1  0
 51 52  1  1
 51 54  1  0
 52 53  2  0
 52 57  1  0
 54 55  1  0
 55 56  1  0
 57 58  1  0
 58 59  1  0
 58 61  1  6
 59 60  2  0
 59 66  1  0
 61 62  1  0
 62 63  1  0
 63 64  1  0
 63 65  2  0
 66 67  1  0
 67 68  1  0
 67 70  1  1
 68 69  2  0
 68 77  1  0
 70 71  1  0
 71 72  2  0
 71 73  1  0
 72 74  1  0
 73 75  2  0
 74 76  2  0
 75 76  1  0
 31 78  1  0
 42 79  1  0
M  END
$$$$
