
     RDKit          3D

 79 80  0  0  0  0  0  0  0  0999 V2000
   -1.5603   -6.9278   25.8334 C   0  0  0  0  0  0  0  0  0  0  0  0
   -1.6754   -6.4549   26.9559 O   0  0  0  0  0  0  0  0  0  0  0  0
   -2.4216   -8.0684   25.3568 C   0  0  0  0  0  0  0  0  0  0  0  0
   -0.6630   -6.4935   24.8786 N   0  0  0  0  0  0  0  0  0  0  0  0
   -0.0375   -5.1652   24.9153 C   0  0  2  0  0  0  0  0  0  0  0  0
   -0.8865   -4.2741   25.8584 C   0  0  0  0  0  0  0  0  0  0  0  0
   -1.6678   -4.7427   26.6896 O   0  0  0  0  0  0  0  0  0  0  0  0
    0.2261   -4.5375   23.5413 C   0  0  0  0  0  0  0  0  0  0  0  0
    0.6174   -5.5505   22.4669 C   0  0  0  0  0  0  0  0  0  0  0  0
    0.9384   -4.8609   21.1721 C   0  0  0  0  0  0  0  0  0  0  0  0
    0.9006   -3.6578   20.9774 O   0  0  0  0  0  0  0  0  0  0  0  0
    1.3008   -5.7141   20.1960 O   0  0  0  0  0  0  0  0  0  0  0  0
   -0.6371   -2.9114   25.7449 N   0  0  0  0  0  0  0  0  0  0  0  0
   -1.3900   -1.9386   26.5676 C   0  0  2  0  0  0  0  0  0  0  0  0
   -2.8136   -1.9020   25.9147 C   0  0  0  0  0  0  0  0  0  0  0  0
   -3.0261   -2.3661   24.7913 O   0  0  0  0  0  0  0  0  0  0  0  0
   -0.6366   -0.5932   26.8036 C   0  0  2  0  0  0  0  0  0  0  0  0
   -1.6555    0.5486   27.0816 C   0  0  0  0  0  0  0  0  0  0  0  0
    0.2594   -0.2043   25.6171 C   0  0  0  0  0  0  0  0  0  0  0  0
   -1.5466    1.1604   28.4753 C   0  0  0  0  0  0  0  0  0  0  0  0
   -3.8444   -1.4117   26.6734 N   0  0  0  0  0  0  0  0  0  0  0  0
   -5.1911   -1.2995   26.1297 C   0  0  2  0  0  0  0  0  0  0  0  0
   -6.1190   -0.6577   27.1719 C   0  0  0  0  0  0  0  0  0  0  0  0
   -6.7466   -1.3177   27.9977 O   0  0  0  0  0  0  0  0  0  0  0  0
   -5.7427   -2.6497   25.6475 C   0  0  0  0  0  0  0  0  0  0  0  0
   -4.7471   -3.4576   24.7992 C   0  0  0  0  0  0  0  0  0  0  0  0
   -5.0415   -4.9569   24.8089 C   0  0  0  0  0  0  0  0  0  0  0  0
   -5.7475   -5.3813   23.6082 N   0  0  0  0  0  0  0  0  0  0  0  0
   -6.9127   -4.8137   23.2227 C   0  0  0  0  0  0  0  0  0  0  0  0
   -7.2702   -5.2367   21.9924 N   0  0  0  0  0  0  0  0  0  0  0  0
   -7.6123   -3.9930   23.9140 N   0  0  0  0  0  0  0  0  0  0  0  0
   -6.2269    0.7099   27.0660 N   0  0  0  0  0  0  0  0  0  0  0  0
   -6.0659    1.5873   28.2197 C   0  0  2  0  0  0  0  0  0  0  0  0
   -6.1436    3.0245   27.6739 C   0  0  0  0  0  0  0  0  0  0  0  0
   -5.2035    3.5282   27.0652 O   0  0  0  0  0  0  0  0  0  0  0  0
   -4.7138    1.3430   28.9085 C   0  0  0  0  0  0  0  0  0  0  0  0
   -4.5059    2.2359   30.1304 C   0  0  0  0  0  0  0  0  0  0  0  0
   -3.2743    1.8082   30.9291 C   0  0  0  0  0  0  0  0  0  0  0  0
   -2.1443    1.6900   30.0188 N   0  0  0  0  0  0  0  0  0  0  0  0
   -1.2491    2.7006   29.9120 C   0  0  0  0  0  0  0  0  0  0  0  0
   -0.0656    2.3635   30.4629 N   0  0  0  0  0  0  0  0  0  0  0  0
   -1.4689    3.8307   29.3500 N   0  0  0  0  0  0  0  0  0  0  0  0
   -7.3303    3.6836   27.9229 N   0  0  0  0  0  0  0  0  0  0  0  0
   -7.5757    5.0382   27.4296 C   0  0  2  0  0  0  0  0  0  0  0  0
   -7.2839    6.2075   28.4103 C   0  0  0  0  0  0  0  0  0  0  0  0
   -6.1512    6.2971   28.9029 O   0  0  0  0  0  0  0  0  0  0  0  0
   -8.9541    5.1932   26.7409 C   0  0  1  0  0  0  0  0  0  0  0  0
   -9.1767    6.6382   26.2790 C   0  0  0  0  0  0  0  0  0  0  0  0
   -9.1755    4.2365   25.5714 C   0  0  0  0  0  0  0  0  0  0  0  0
   -8.2106    7.1874   28.6927 N   0  0  0  0  0  0  0  0  0  0  0  0
   -8.0999    7.9701   29.9372 C   0  0  2  0  0  0  0  0  0  0  0  0
   -8.7210    7.1853   31.1242 C   0  0  0  0  0  0  0  0  0  0  0  0
   -8.8174    5.9588   31.1466 O   0  0  0  0  0  0  0  0  0  0  0  0
   -8.8674    9.2525   29.6251 C   0  0  0  0  0  0  0  0  0  0  0  0
   -9.9916    8.7581   28.7251 C   0  0  0  0  0  0  0  0  0  0  0  0
   -9.3317    7.6607   27.8990 C   0  0  0  0  0  0  0  0  0  0  0  0
   -9.1861    7.9853   32.1448 N   0  0  0  0  0  0  0  0  0  0  0  0
   -9.1072    7.6051   33.5479 C   0  0  2  0  0  0  0  0  0  0  0  0
   -9.6801    8.7635   34.3892 C   0  0  0  0  0  0  0  0  0  0  0  0
   -9.2223    9.9025   34.3576 O   0  0  0  0  0  0  0  0  0  0  0  0
   -7.6416    7.3289   33.8957 C   0  0  0  0  0  0  0  0  0  0  0  0
   -7.4209    6.9884   35.3683 C   0  0  0  0  0  0  0  0  0  0  0  0
   -7.6970    5.5334   35.6414 C   0  0  0  0  0  0  0  0  0  0  0  0
   -8.2336    4.9141   34.5736 O   0  0  0  0  0  0  0  0  0  0  0  0
   -7.4672    4.9190   36.6666 O   0  0  0  0  0  0  0  0  0  0  0  0
  -10.7149    8.4108   35.2247 N   0  0  0  0  0  0  0  0  0  0  0  0
  -12.1249    8.5218   34.8213 C   0  0  2  0  0  0  0  0  0  0  0  0
  -13.0089    8.1322   36.0133 C   0  0  0  0  0  0  0  0  0  0  0  0
  -12.8204    7.2370   36.8198 O   0  0  0  0  0  0  0  0  0  0  0  0
  -12.4395    7.6289   33.6086 C   0  0  0  0  0  0  0  0  0  0  0  0
  -13.8648    7.7798   33.1286 C   0  0  0  0  0  0  0  0  0  0  0  0
  -14.8798    6.9830   33.6776 C   0  0  0  0  0  0  0  0  0  0  0  0
  -14.1897    8.6929   32.1162 C   0  0  0  0  0  0  0  0  0  0  0  0
  -16.1932    7.0971   33.2196 C   0  0  0  0  0  0  0  0  0  0  0  0
  -15.5064    8.8082   31.6622 C   0  0  0  0  0  0  0  0  0  0  0  0
  -16.5056    8.0081   32.2114 C   0  0  0  0  0  0  0  0  0  0  0  0
  -14.1166    8.9080   36.1358 O   0  0  0  0  0  0  0  0  0  0  0  0
   -8.1620   -4.5041   24.6038 H   0  0  0  0  0  0  0  0  0  0  0  0
   -2.2093    4.3265   29.8447 H   0  0  0  0  0  0  0  0  0  0  0  0
  1  2  2  0
  1  3  1  0
  1  4  1  0
  4  5  1  0
  5  6  1  0
  5  8  1  6
  6  7  2  0
  6 13  1  0
  8  9  1  0
  9 10  1  0
 10 11  2  0
 10 12  1  0
 14 13  1  6
 14 15  1  0
 14 17  1  0
 15 16  2  0
 15 21  1  0
 17 18  1  0
 17 19  1  6
 18 20  1  0
 21 22  1  0
 22 23  1  0
 22 25  1  1
 23 24  2  0
 23 32  1  0
 25 26  1  0
 26 27  1  0
 27 28  1  0
 28 29  1  0
 29 30  1  0
 29 31  2  0
 32 33  1  0
 33 34  1  0
 33 36  1  6
 34 35  2  0
 34 43  1  0
 36 37  1  0
 37 38  1  0
 38 39  1  0
 39 40  1  0
 40 41  1  0
 40 42  2  0
 44 43  1  1
 44 45  1  0
 44 47  1  0
 45 46  2  0
 45 50  1  0
 47 48  1  6
 47 49  1  0
 50 51  1  0
 50 56  1  0
 51 52  1  1
 51 54  1  0
 52 53  2  0
 52 57  1  0
 54 55  1  0
 55 56  1  0
 57 58  1  0
 58 59  1  0
 58 61  1  1
 59 60  2  0
 59 66  1  0
 61 62  1  0
 62 63  1  0
 63 64  1  0
 63 65  2  0
 66 67  1  0
 67 68  1  0
 67 70  1  6
 68 69  2  0
 68 77  1  0
 70 71  1  0
 71 72  2  0
 71 73  1  0
 72 74  1  0
 73 75  2  0
 74 76  2  0
 75 76  1  0
 31 78  1  0
 42 79  1  0
M  END
$$$$
