
     RDKit          3D

 79 80  0  0  0  0  0  0  0  0999 V2000
    0.7232   -5.4621   24.8838 C   0  0  0  0  0  0  0  0  0  0  0  0
    0.2139   -4.4976   25.4383 O   0  0  0  0  0  0  0  0  0  0  0  0
    2.0548   -6.0187   25.3162 C   0  0  0  0  0  0  0  0  0  0  0  0
    0.1658   -6.1548   23.8279 N   0  0  0  0  0  0  0  0  0  0  0  0
   -1.2674   -6.1101   23.5105 C   0  0  2  0  0  0  0  0  0  0  0  0
   -1.6550   -4.6228   23.3049 C   0  0  0  0  0  0  0  0  0  0  0  0
   -0.8262   -3.7530   23.0272 O   0  0  0  0  0  0  0  0  0  0  0  0
   -2.1715   -6.8547   24.5003 C   0  0  0  0  0  0  0  0  0  0  0  0
   -1.9212   -6.4839   25.9609 C   0  0  0  0  0  0  0  0  0  0  0  0
   -2.8577   -7.2267   26.8700 C   0  0  0  0  0  0  0  0  0  0  0  0
   -2.9104   -7.1156   28.0831 O   0  0  0  0  0  0  0  0  0  0  0  0
   -3.6847   -8.0584   26.2094 O   0  0  0  0  0  0  0  0  0  0  0  0
   -3.0188   -4.3657   23.3813 N   0  0  0  0  0  0  0  0  0  0  0  0
   -3.5644   -3.0650   22.9334 C   0  0  2  0  0  0  0  0  0  0  0  0
   -3.8239   -2.2778   24.2627 C   0  0  0  0  0  0  0  0  0  0  0  0
   -4.9646   -1.9980   24.6411 O   0  0  0  0  0  0  0  0  0  0  0  0
   -4.7220   -3.1886   21.8950 C   0  0  2  0  0  0  0  0  0  0  0  0
   -5.1707   -1.7760   21.4236 C   0  0  0  0  0  0  0  0  0  0  0  0
   -5.9334   -3.9528   22.4522 C   0  0  0  0  0  0  0  0  0  0  0  0
   -6.1214   -1.7860   20.2301 C   0  0  0  0  0  0  0  0  0  0  0  0
   -2.7374   -1.9822   25.0445 N   0  0  0  0  0  0  0  0  0  0  0  0
   -2.5083   -0.6293   25.5330 C   0  0  2  0  0  0  0  0  0  0  0  0
   -3.7926   -0.0865   26.1773 C   0  0  0  0  0  0  0  0  0  0  0  0
   -4.1406    1.0883   26.0758 O   0  0  0  0  0  0  0  0  0  0  0  0
   -1.9949    0.3118   24.4329 C   0  0  0  0  0  0  0  0  0  0  0  0
   -1.6606    1.7261   24.9346 C   0  0  0  0  0  0  0  0  0  0  0  0
   -0.2366    1.8406   25.4770 C   0  0  0  0  0  0  0  0  0  0  0  0
    0.5930    0.7148   25.0714 N   0  0  0  0  0  0  0  0  0  0  0  0
    1.3522    0.0280   25.9549 C   0  0  0  0  0  0  0  0  0  0  0  0
    2.0947   -0.9069   25.3267 N   0  0  0  0  0  0  0  0  0  0  0  0
    1.3931    0.2238   27.2202 N   0  0  0  0  0  0  0  0  0  0  0  0
   -4.4880   -1.0136   26.9189 N   0  0  0  0  0  0  0  0  0  0  0  0
   -5.6827   -0.6565   27.6748 C   0  0  2  0  0  0  0  0  0  0  0  0
   -6.0925    0.7439   27.1844 C   0  0  0  0  0  0  0  0  0  0  0  0
   -5.8642    1.1101   26.0346 O   0  0  0  0  0  0  0  0  0  0  0  0
   -5.3900   -0.6364   29.1836 C   0  0  0  0  0  0  0  0  0  0  0  0
   -6.4123   -1.4330   29.9922 C   0  0  0  0  0  0  0  0  0  0  0  0
   -7.4300   -0.5113   30.6647 C   0  0  0  0  0  0  0  0  0  0  0  0
   -6.7280    0.3604   31.5957 N   0  0  0  0  0  0  0  0  0  0  0  0
   -7.4175    1.2633   32.3329 C   0  0  0  0  0  0  0  0  0  0  0  0
   -6.5900    2.1666   32.8960 N   0  0  0  0  0  0  0  0  0  0  0  0
   -8.6903    1.2872   32.4768 N   0  0  0  0  0  0  0  0  0  0  0  0
   -6.7213    1.5346   28.1247 N   0  0  0  0  0  0  0  0  0  0  0  0
   -7.5425    2.6815   27.7397 C   0  0  2  0  0  0  0  0  0  0  0  0
   -7.9573    3.6614   28.8720 C   0  0  0  0  0  0  0  0  0  0  0  0
   -8.6681    3.2346   29.7921 O   0  0  0  0  0  0  0  0  0  0  0  0
   -8.7443    2.2942   26.8430 C   0  0  1  0  0  0  0  0  0  0  0  0
   -9.6174    3.5172   26.5381 C   0  0  0  0  0  0  0  0  0  0  0  0
   -8.3499    1.6024   25.5400 C   0  0  0  0  0  0  0  0  0  0  0  0
   -7.5045    4.9614   28.9307 N   0  0  0  0  0  0  0  0  0  0  0  0
   -7.3169    5.6185   30.2371 C   0  0  2  0  0  0  0  0  0  0  0  0
   -8.6691    6.1751   30.7591 C   0  0  0  0  0  0  0  0  0  0  0  0
   -9.4957    6.7300   30.0361 O   0  0  0  0  0  0  0  0  0  0  0  0
   -6.3093    6.7268   29.9410 C   0  0  0  0  0  0  0  0  0  0  0  0
   -6.6903    7.1563   28.5308 C   0  0  0  0  0  0  0  0  0  0  0  0
   -7.0963    5.8512   27.8570 C   0  0  0  0  0  0  0  0  0  0  0  0
   -8.8539    6.0212   32.1156 N   0  0  0  0  0  0  0  0  0  0  0  0
  -10.0563    6.4646   32.8065 C   0  0  2  0  0  0  0  0  0  0  0  0
  -10.3150    7.9345   32.4186 C   0  0  0  0  0  0  0  0  0  0  0  0
  -10.4376    8.3070   31.2550 O   0  0  0  0  0  0  0  0  0  0  0  0
   -9.8358    6.3115   34.3141 C   0  0  0  0  0  0  0  0  0  0  0  0
   -9.7588    4.8561   34.7716 C   0  0  0  0  0  0  0  0  0  0  0  0
   -9.5589    4.7601   36.2611 C   0  0  0  0  0  0  0  0  0  0  0  0
   -8.2876    5.0237   36.6162 O   0  0  0  0  0  0  0  0  0  0  0  0
  -10.4001    4.5055   37.1032 O   0  0  0  0  0  0  0  0  0  0  0  0
  -10.3442    8.8124   33.4778 N   0  0  0  0  0  0  0  0  0  0  0  0
  -10.6649   10.2379   33.3099 C   0  0  2  0  0  0  0  0  0  0  0  0
  -10.7310   10.8929   34.6958 C   0  0  0  0  0  0  0  0  0  0  0  0
  -10.6976   12.0831   34.9600 O   0  0  0  0  0  0  0  0  0  0  0  0
  -11.9944   10.4356   32.5616 C   0  0  0  0  0  0  0  0  0  0  0  0
  -11.8685   10.1891   31.0757 C   0  0  0  0  0  0  0  0  0  0  0  0
  -11.0425   11.0100   30.2943 C   0  0  0  0  0  0  0  0  0  0  0  0
  -12.5894    9.1608   30.4537 C   0  0  0  0  0  0  0  0  0  0  0  0
  -10.9430   10.8060   28.9173 C   0  0  0  0  0  0  0  0  0  0  0  0
  -12.4848    8.9559   29.0752 C   0  0  0  0  0  0  0  0  0  0  0  0
  -11.6651    9.7805   28.3083 C   0  0  0  0  0  0  0  0  0  0  0  0
  -10.8386    9.9951   35.7089 O   0  0  0  0  0  0  0  0  0  0  0  0
    2.0946   -0.3844   27.6410 H   0  0  0  0  0  0  0  0  0  0  0  0
   -9.0423    0.3405   32.6136 H   0  0  0  0  0  0  0  0  0  0  0  0
  1  2  2  0
  1  3  1  0
  1  4  1  0
  4  5  1  0
  5  6  1  0
  5  8  1  1
  6  7  2  0
  6 13  1  0
  8  9  1  0
  9 10  1  0
 10 11  2  0
 10 12  1  0
 14 13  1  1
 14 15  1  0
 14 17  1  0
 15 16  2  0
 15 21  1  0
 17 18  1  0
 17 19  1  1
 18 20  1  0
 21 22  1  0
 22 23  1  0
 22 25  1  6
 23 24  2  0
 23 32  1  0
 25 26  1  0
 26 27  1  0
 27 28  1  0
 28 29  1  0
 29 30  1  0
 29 31  2  0
 32 33  1  0
 33 34  1  0
 33 36  1  1
 34 35  2  0
 34 43  1  0
 36 37  1  0
 37 38  1  0
 38 39  1  0
 39 40  1  0
 40 41  1  0
 40 42  2  0
 44 43  1  1
 44 45  1  0
 44 47  1  0
 45 46  2  0
 45 50  1  0
 47 48  1  6
 47 49  1  0
 50 51  1  0
 50 56  1  0
 51 52  1  6
 51 54  1  0
 52 53  2  0
 52 57  1  0
 54 55  1  0
 55 56  1  0
 57 58  1  0
 58 59  1  0
 58 61  1  1
 59 60  2  0
 59 66  1  0
 61 62  1  0
 62 63  1  0
 63 64  1  0
 63 65  2  0
 66 67  1  0
 67 68  1  0
 67 70  1  1
 68 69  2  0
 68 77  1  0
 70 71  1  0
 71 72  2  0
 71 73  1  0
 72 74  1  0
 73 75  2  0
 74 76  2  0
 75 76  1  0
 31 78  1  0
 42 79  1  0
M  END
$$$$
