
     RDKit          3D

 79 80  0  0  0  0  0  0  0  0999 V2000
    1.1114   -2.8196   23.2029 C   0  0  0  0  0  0  0  0  0  0  0  0
    1.9106   -3.6432   22.7785 O   0  0  0  0  0  0  0  0  0  0  0  0
    0.6944   -1.6215   22.3901 C   0  0  0  0  0  0  0  0  0  0  0  0
    0.4967   -2.8748   24.4375 N   0  0  0  0  0  0  0  0  0  0  0  0
    0.7949   -3.9125   25.4331 C   0  0  2  0  0  0  0  0  0  0  0  0
    0.3207   -5.2693   24.8511 C   0  0  0  0  0  0  0  0  0  0  0  0
    0.9092   -5.8382   23.9287 O   0  0  0  0  0  0  0  0  0  0  0  0
    0.2664   -3.6250   26.8436 C   0  0  0  0  0  0  0  0  0  0  0  0
    0.7671   -4.6081   27.9003 C   0  0  0  0  0  0  0  0  0  0  0  0
    0.1603   -4.3081   29.2409 C   0  0  0  0  0  0  0  0  0  0  0  0
   -0.2155   -3.2131   29.6237 O   0  0  0  0  0  0  0  0  0  0  0  0
    0.0464   -5.3973   30.0236 O   0  0  0  0  0  0  0  0  0  0  0  0
   -0.7716   -5.8278   25.5045 N   0  0  0  0  0  0  0  0  0  0  0  0
   -1.7555   -6.6448   24.7598 C   0  0  2  0  0  0  0  0  0  0  0  0
   -3.1305   -5.9534   25.0526 C   0  0  0  0  0  0  0  0  0  0  0  0
   -4.1421   -6.2129   24.3952 O   0  0  0  0  0  0  0  0  0  0  0  0
   -1.6184   -8.1792   25.0053 C   0  0  2  0  0  0  0  0  0  0  0  0
   -1.4795   -8.9275   23.6489 C   0  0  0  0  0  0  0  0  0  0  0  0
   -2.8053   -8.7577   25.7918 C   0  0  0  0  0  0  0  0  0  0  0  0
   -0.7729  -10.2764   23.7467 C   0  0  0  0  0  0  0  0  0  0  0  0
   -3.1959   -5.1071   26.1288 N   0  0  0  0  0  0  0  0  0  0  0  0
   -4.4761   -4.6277   26.6317 C   0  0  2  0  0  0  0  0  0  0  0  0
   -4.4617   -3.0936   26.7067 C   0  0  0  0  0  0  0  0  0  0  0  0
   -3.7912   -2.4758   27.5315 O   0  0  0  0  0  0  0  0  0  0  0  0
   -4.8431   -5.2495   27.9875 C   0  0  0  0  0  0  0  0  0  0  0  0
   -5.1814   -4.2137   29.0721 C   0  0  0  0  0  0  0  0  0  0  0  0
   -5.4234   -4.8478   30.4412 C   0  0  0  0  0  0  0  0  0  0  0  0
   -5.4009   -3.8600   31.5107 N   0  0  0  0  0  0  0  0  0  0  0  0
   -4.7839   -2.6649   31.3707 C   0  0  0  0  0  0  0  0  0  0  0  0
   -4.1900   -2.5685   30.1631 N   0  0  0  0  0  0  0  0  0  0  0  0
   -4.7598   -1.7265   32.2422 N   0  0  0  0  0  0  0  0  0  0  0  0
   -5.3023   -2.4763   25.8093 N   0  0  0  0  0  0  0  0  0  0  0  0
   -5.3194   -1.0281   25.6400 C   0  0  2  0  0  0  0  0  0  0  0  0
   -6.2023   -0.4784   26.7749 C   0  0  0  0  0  0  0  0  0  0  0  0
   -7.4073   -0.7115   26.8166 O   0  0  0  0  0  0  0  0  0  0  0  0
   -5.8997   -0.6441   24.2695 C   0  0  0  0  0  0  0  0  0  0  0  0
   -6.4768    0.7701   24.2499 C   0  0  0  0  0  0  0  0  0  0  0  0
   -6.4280    1.3717   22.8452 C   0  0  0  0  0  0  0  0  0  0  0  0
   -7.7686    1.3455   22.2782 N   0  0  0  0  0  0  0  0  0  0  0  0
   -7.9725    1.7352   20.9974 C   0  0  0  0  0  0  0  0  0  0  0  0
   -9.2844    1.9196   20.7470 N   0  0  0  0  0  0  0  0  0  0  0  0
   -7.0543    1.9274   20.1248 N   0  0  0  0  0  0  0  0  0  0  0  0
   -5.5406    0.2819   27.7176 N   0  0  0  0  0  0  0  0  0  0  0  0
   -6.2533    0.9444   28.8091 C   0  0  2  0  0  0  0  0  0  0  0  0
   -6.6485    2.4312   28.5911 C   0  0  0  0  0  0  0  0  0  0  0  0
   -5.8453    3.1780   28.0159 O   0  0  0  0  0  0  0  0  0  0  0  0
   -5.5911    0.7202   30.1910 C   0  0  1  0  0  0  0  0  0  0  0  0
   -6.3620    1.4549   31.2940 C   0  0  0  0  0  0  0  0  0  0  0  0
   -5.4234   -0.7500   30.5686 C   0  0  0  0  0  0  0  0  0  0  0  0
   -7.8835    2.9298   28.9444 N   0  0  0  0  0  0  0  0  0  0  0  0
   -8.3347    4.2279   28.4105 C   0  0  2  0  0  0  0  0  0  0  0  0
   -7.7399    5.3913   29.2491 C   0  0  0  0  0  0  0  0  0  0  0  0
   -7.2706    5.2405   30.3766 O   0  0  0  0  0  0  0  0  0  0  0  0
   -9.8557    4.1529   28.5200 C   0  0  0  0  0  0  0  0  0  0  0  0
  -10.0592    3.3509   29.7982 C   0  0  0  0  0  0  0  0  0  0  0  0
   -8.9226    2.3365   29.7685 C   0  0  0  0  0  0  0  0  0  0  0  0
   -7.8096    6.6213   28.6325 N   0  0  0  0  0  0  0  0  0  0  0  0
   -7.3338    7.8479   29.2559 C   0  0  2  0  0  0  0  0  0  0  0  0
   -8.5444    8.5605   29.8923 C   0  0  0  0  0  0  0  0  0  0  0  0
   -9.6044    8.7365   29.2980 O   0  0  0  0  0  0  0  0  0  0  0  0
   -6.6721    8.7152   28.1812 C   0  0  0  0  0  0  0  0  0  0  0  0
   -5.1874    8.4130   27.9866 C   0  0  0  0  0  0  0  0  0  0  0  0
   -4.4781    9.5608   27.3179 C   0  0  0  0  0  0  0  0  0  0  0  0
   -3.1779    9.2899   27.0991 O   0  0  0  0  0  0  0  0  0  0  0  0
   -4.9602   10.6219   26.9668 O   0  0  0  0  0  0  0  0  0  0  0  0
   -8.3282    9.0358   31.1653 N   0  0  0  0  0  0  0  0  0  0  0  0
   -9.3599    9.7637   31.9195 C   0  0  2  0  0  0  0  0  0  0  0  0
   -8.7342   11.0364   32.5049 C   0  0  0  0  0  0  0  0  0  0  0  0
   -7.7264   11.1261   33.1859 O   0  0  0  0  0  0  0  0  0  0  0  0
   -9.9586    8.8980   33.0414 C   0  0  0  0  0  0  0  0  0  0  0  0
  -11.0872    9.5896   33.7713 C   0  0  0  0  0  0  0  0  0  0  0  0
  -11.8233    8.8984   34.7443 C   0  0  0  0  0  0  0  0  0  0  0  0
  -11.4317   10.9148   33.4720 C   0  0  0  0  0  0  0  0  0  0  0  0
  -12.8846    9.5216   35.4023 C   0  0  0  0  0  0  0  0  0  0  0  0
  -12.4923   11.5379   34.1353 C   0  0  0  0  0  0  0  0  0  0  0  0
  -13.2196   10.8400   35.0965 C   0  0  0  0  0  0  0  0  0  0  0  0
   -9.4251   12.1643   32.1972 O   0  0  0  0  0  0  0  0  0  0  0  0
   -5.6458   -1.2223   32.2310 H   0  0  0  0  0  0  0  0  0  0  0  0
   -6.2761    2.4338   20.5452 H   0  0  0  0  0  0  0  0  0  0  0  0
  1  2  2  0
  1  3  1  0
  1  4  1  0
  4  5  1  0
  5  6  1  0
  5  8  1  1
  6  7  2  0
  6 13  1  0
  8  9  1  0
  9 10  1  0
 10 11  2  0
 10 12  1  0
 14 13  1  1
 14 15  1  0
 14 17  1  0
 15 16  2  0
 15 21  1  0
 17 18  1  0
 17 19  1  6
 18 20  1  0
 21 22  1  0
 22 23  1  0
 22 25  1  1
 23 24  2  0
 23 32  1  0
 25 26  1  0
 26 27  1  0
 27 28  1  0
 28 29  1  0
 29 30  1  0
 29 31  2  0
 32 33  1  0
 33 34  1  0
 33 36  1  6
 34 35  2  0
 34 43  1  0
 36 37  1  0
 37 38  1  0
 38 39  1  0
 39 40  1  0
 40 41  1  0
 40 42  2  0
 44 43  1  6
 44 45  1  0
 44 47  1  0
 45 46  2  0
 45 50  1  0
 47 48  1  1
 47 49  1  0
 50 51  1  0
 50 56  1  0
 51 52  1  1
 51 54  1  0
 52 53  2  0
 52 57  1  0
 54 55  1  0
 55 56  1  0
 57 58  1  0
 58 59  1  0
 58 61  1  6
 59 60  2  0
 59 66  1  0
 61 62  1  0
 62 63  1  0
 63 64  1  0
 63 65  2  0
 66 67  1  0
 67 68  1  0
 67 70  1  1
 68 69  2  0
 68 77  1  0
 70 71  1  0
 71 72  2  0
 71 73  1  0
 72 74  1  0
 73 75  2  0
 74 76  2  0
 75 76  1  0
 31 78  1  0
 42 79  1  0
M  END
$$$$
