
     RDKit          3D

 79 80  0  0  0  0  0  0  0  0999 V2000
   -0.0511   -4.3598   32.6531 C   0  0  0  0  0  0  0  0  0  0  0  0
    0.2445   -5.5437   32.7421 O   0  0  0  0  0  0  0  0  0  0  0  0
    0.4736   -3.3323   33.6220 C   0  0  0  0  0  0  0  0  0  0  0  0
   -0.8708   -3.8184   31.6834 N   0  0  0  0  0  0  0  0  0  0  0  0
   -2.2245   -3.3239   31.9662 C   0  0  2  0  0  0  0  0  0  0  0  0
   -2.8232   -2.8097   30.6315 C   0  0  0  0  0  0  0  0  0  0  0  0
   -3.3422   -1.6965   30.5218 O   0  0  0  0  0  0  0  0  0  0  0  0
   -2.3156   -2.3132   33.1159 C   0  0  0  0  0  0  0  0  0  0  0  0
   -3.3916   -2.6494   34.1468 C   0  0  0  0  0  0  0  0  0  0  0  0
   -3.5004   -1.5654   35.1804 C   0  0  0  0  0  0  0  0  0  0  0  0
   -2.6394   -1.2637   35.9894 O   0  0  0  0  0  0  0  0  0  0  0  0
   -4.6759   -0.9111   35.1364 O   0  0  0  0  0  0  0  0  0  0  0  0
   -2.6567   -3.6717   29.5539 N   0  0  0  0  0  0  0  0  0  0  0  0
   -3.5984   -3.6387   28.4128 C   0  0  2  0  0  0  0  0  0  0  0  0
   -3.2213   -2.3293   27.6398 C   0  0  0  0  0  0  0  0  0  0  0  0
   -2.9826   -1.2718   28.2291 O   0  0  0  0  0  0  0  0  0  0  0  0
   -5.0876   -3.8716   28.8149 C   0  0  2  0  0  0  0  0  0  0  0  0
   -5.8375   -4.6221   27.6776 C   0  0  0  0  0  0  0  0  0  0  0  0
   -5.8223   -2.5607   29.1366 C   0  0  0  0  0  0  0  0  0  0  0  0
   -7.2773   -4.9968   28.0170 C   0  0  0  0  0  0  0  0  0  0  0  0
   -3.0783   -2.4175   26.2794 N   0  0  0  0  0  0  0  0  0  0  0  0
   -2.7516   -1.2445   25.4801 C   0  0  2  0  0  0  0  0  0  0  0  0
   -3.6584   -0.0727   25.8847 C   0  0  0  0  0  0  0  0  0  0  0  0
   -4.3911   -0.1104   26.8712 O   0  0  0  0  0  0  0  0  0  0  0  0
   -2.8366   -1.5211   23.9715 C   0  0  0  0  0  0  0  0  0  0  0  0
   -2.6087   -2.9951   23.5987 C   0  0  0  0  0  0  0  0  0  0  0  0
   -1.5907   -3.1702   22.4727 C   0  0  0  0  0  0  0  0  0  0  0  0
   -1.9561   -2.4114   21.2849 N   0  0  0  0  0  0  0  0  0  0  0  0
   -1.2095   -2.4396   20.1578 C   0  0  0  0  0  0  0  0  0  0  0  0
   -0.6336   -1.2406   19.9320 N   0  0  0  0  0  0  0  0  0  0  0  0
   -1.0415   -3.4544   19.3945 N   0  0  0  0  0  0  0  0  0  0  0  0
   -3.6187    0.9969   25.0201 N   0  0  0  0  0  0  0  0  0  0  0  0
   -4.7228    1.2991   24.1167 C   0  0  2  0  0  0  0  0  0  0  0  0
   -5.6010    2.3293   24.8495 C   0  0  0  0  0  0  0  0  0  0  0  0
   -6.5760    2.8400   24.3048 O   0  0  0  0  0  0  0  0  0  0  0  0
   -5.5303    0.0312   23.7963 C   0  0  0  0  0  0  0  0  0  0  0  0
   -6.4915    0.2257   22.6251 C   0  0  0  0  0  0  0  0  0  0  0  0
   -5.7453    0.2500   21.2909 C   0  0  0  0  0  0  0  0  0  0  0  0
   -6.5049   -0.5197   20.3161 N   0  0  0  0  0  0  0  0  0  0  0  0
   -6.1007   -0.5683   19.0245 C   0  0  0  0  0  0  0  0  0  0  0  0
   -6.5376    0.5057   18.3363 N   0  0  0  0  0  0  0  0  0  0  0  0
   -5.3821   -1.4935   18.5059 N   0  0  0  0  0  0  0  0  0  0  0  0
   -5.2076    2.6246   26.1390 N   0  0  0  0  0  0  0  0  0  0  0  0
   -6.1806    2.8704   27.2025 C   0  0  2  0  0  0  0  0  0  0  0  0
   -5.8749    4.0397   28.1791 C   0  0  0  0  0  0  0  0  0  0  0  0
   -4.9122    3.9292   28.9504 O   0  0  0  0  0  0  0  0  0  0  0  0
   -6.5947    1.5826   27.9563 C   0  0  1  0  0  0  0  0  0  0  0  0
   -7.7727    1.8540   28.8993 C   0  0  0  0  0  0  0  0  0  0  0  0
   -6.9254    0.4058   27.0409 C   0  0  0  0  0  0  0  0  0  0  0  0
   -6.5848    5.2206   28.1675 N   0  0  0  0  0  0  0  0  0  0  0  0
   -6.4159    6.1931   29.2626 C   0  0  2  0  0  0  0  0  0  0  0  0
   -7.2975    5.7951   30.4771 C   0  0  0  0  0  0  0  0  0  0  0  0
   -7.6251    4.6348   30.7229 O   0  0  0  0  0  0  0  0  0  0  0  0
   -6.8518    7.5167   28.6388 C   0  0  0  0  0  0  0  0  0  0  0  0
   -7.9725    7.0904   27.7003 C   0  0  0  0  0  0  0  0  0  0  0  0
   -7.4992    5.7437   27.1669 C   0  0  0  0  0  0  0  0  0  0  0  0
   -7.7103    6.8617   31.2452 N   0  0  0  0  0  0  0  0  0  0  0  0
   -8.3619    6.7019   32.5374 C   0  0  2  0  0  0  0  0  0  0  0  0
   -8.6131    8.1066   33.1221 C   0  0  0  0  0  0  0  0  0  0  0  0
   -7.8911    9.0700   32.8804 O   0  0  0  0  0  0  0  0  0  0  0  0
   -7.4489    5.8709   33.4434 C   0  0  0  0  0  0  0  0  0  0  0  0
   -6.6700    4.7913   32.6943 C   0  0  0  0  0  0  0  0  0  0  0  0
   -5.2004    4.8525   33.0174 C   0  0  0  0  0  0  0  0  0  0  0  0
   -4.5127    3.8604   32.4220 O   0  0  0  0  0  0  0  0  0  0  0  0
   -4.6299    5.6807   33.7031 O   0  0  0  0  0  0  0  0  0  0  0  0
   -9.6825    8.1881   33.9841 N   0  0  0  0  0  0  0  0  0  0  0  0
  -11.0560    8.4245   33.5142 C   0  0  2  0  0  0  0  0  0  0  0  0
  -11.9501    8.7016   34.7299 C   0  0  0  0  0  0  0  0  0  0  0  0
  -13.0316    9.2651   34.7466 O   0  0  0  0  0  0  0  0  0  0  0  0
  -11.5963    7.2256   32.7160 C   0  0  0  0  0  0  0  0  0  0  0  0
  -12.9329    7.5106   32.0704 C   0  0  0  0  0  0  0  0  0  0  0  0
  -12.9962    8.2549   30.8836 C   0  0  0  0  0  0  0  0  0  0  0  0
  -14.1246    7.0620   32.6560 C   0  0  0  0  0  0  0  0  0  0  0  0
  -14.2286    8.5458   30.2969 C   0  0  0  0  0  0  0  0  0  0  0  0
  -15.3572    7.3511   32.0643 C   0  0  0  0  0  0  0  0  0  0  0  0
  -15.4082    8.0954   30.8881 C   0  0  0  0  0  0  0  0  0  0  0  0
  -11.4262    8.2446   35.8964 O   0  0  0  0  0  0  0  0  0  0  0  0
   -1.7410   -3.4481   18.6530 H   0  0  0  0  0  0  0  0  0  0  0  0
   -4.5633   -1.0863   18.0558 H   0  0  0  0  0  0  0  0  0  0  0  0
  1  2  2  0
  1  3  1  0
  1  4  1  0
  4  5  1  0
  5  6  1  0
  5  8  1  1
  6  7  2  0
  6 13  1  0
  8  9  1  0
  9 10  1  0
 10 11  2  0
 10 12  1  0
 14 13  1  1
 14 15  1  0
 14 17  1  0
 15 16  2  0
 15 21  1  0
 17 18  1  0
 17 19  1  6
 18 20  1  0
 21 22  1  0
 22 23  1  0
 22 25  1  6
 23 24  2  0
 23 32  1  0
 25 26  1  0
 26 27  1  0
 27 28  1  0
 28 29  1  0
 29 30  1  0
 29 31  2  0
 32 33  1  0
 33 34  1  0
 33 36  1  1
 34 35  2  0
 34 43  1  0
 36 37  1  0
 37 38  1  0
 38 39  1  0
 39 40  1  0
 40 41  1  0
 40 42  2  0
 44 43  1  1
 44 45  1  0
 44 47  1  0
 45 46  2  0
 45 50  1  0
 47 48  1  6
 47 49  1  0
 50 51  1  0
 50 56  1  0
 51 52  1  1
 51 54  1  0
 52 53  2  0
 52 57  1  0
 54 55  1  0
 55 56  1  0
 57 58  1  0
 58 59  1  0
 58 61  1  1
 59 60  2  0
 59 66  1  0
 61 62  1  0
 62 63  1  0
 63 64  1  0
 63 65  2  0
 66 67  1  0
 67 68  1  0
 67 70  1  1
 68 69  2  0
 68 77  1  0
 70 71  1  0
 71 72  2  0
 71 73  1  0
 72 74  1  0
 73 75  2  0
 74 76  2  0
 75 76  1  0
 31 78  1  0
 42 79  1  0
M  END
$$$$
