
     RDKit          3D

 79 80  0  0  0  0  0  0  0  0999 V2000
   -2.2479   -4.6696   34.1204 C   0  0  0  0  0  0  0  0  0  0  0  0
   -2.7442   -5.1542   35.1282 O   0  0  0  0  0  0  0  0  0  0  0  0
   -1.9051   -3.2055   34.0256 C   0  0  0  0  0  0  0  0  0  0  0  0
   -1.9369   -5.3721   32.9736 N   0  0  0  0  0  0  0  0  0  0  0  0
   -1.4599   -4.7248   31.7446 C   0  0  2  0  0  0  0  0  0  0  0  0
   -2.7023   -4.1989   30.9802 C   0  0  0  0  0  0  0  0  0  0  0  0
   -3.8554   -4.4873   31.3090 O   0  0  0  0  0  0  0  0  0  0  0  0
   -0.5214   -5.5814   30.8861 C   0  0  0  0  0  0  0  0  0  0  0  0
   -0.0253   -4.8757   29.6253 C   0  0  0  0  0  0  0  0  0  0  0  0
    0.7521   -5.8198   28.7539 C   0  0  0  0  0  0  0  0  0  0  0  0
    0.2760   -6.6873   28.0414 O   0  0  0  0  0  0  0  0  0  0  0  0
    2.0817   -5.6180   28.8129 O   0  0  0  0  0  0  0  0  0  0  0  0
   -2.4133   -3.3156   29.9466 N   0  0  0  0  0  0  0  0  0  0  0  0
   -3.4528   -2.3980   29.4296 C   0  0  2  0  0  0  0  0  0  0  0  0
   -2.7903   -1.7326   28.1756 C   0  0  0  0  0  0  0  0  0  0  0  0
   -1.6459   -1.2723   28.2117 O   0  0  0  0  0  0  0  0  0  0  0  0
   -4.0858   -1.4803   30.5209 C   0  0  2  0  0  0  0  0  0  0  0  0
   -4.6891   -2.3462   31.6634 C   0  0  0  0  0  0  0  0  0  0  0  0
   -5.1706   -0.5520   29.9525 C   0  0  0  0  0  0  0  0  0  0  0  0
   -5.1531   -1.5468   32.8776 C   0  0  0  0  0  0  0  0  0  0  0  0
   -3.4961   -1.7559   27.0008 N   0  0  0  0  0  0  0  0  0  0  0  0
   -2.8299   -1.9960   25.7279 C   0  0  2  0  0  0  0  0  0  0  0  0
   -3.2590   -0.9296   24.7092 C   0  0  0  0  0  0  0  0  0  0  0  0
   -3.2195   -1.1179   23.4949 O   0  0  0  0  0  0  0  0  0  0  0  0
   -3.0826   -3.4133   25.1924 C   0  0  0  0  0  0  0  0  0  0  0  0
   -1.8140   -4.1189   24.6860 C   0  0  0  0  0  0  0  0  0  0  0  0
   -2.0753   -5.5558   24.2365 C   0  0  0  0  0  0  0  0  0  0  0  0
   -0.9421   -6.1149   23.5131 N   0  0  0  0  0  0  0  0  0  0  0  0
    0.2064   -5.4238   23.3340 C   0  0  0  0  0  0  0  0  0  0  0  0
    1.2799   -6.2271   23.4848 N   0  0  0  0  0  0  0  0  0  0  0  0
    0.2956   -4.1789   23.0462 N   0  0  0  0  0  0  0  0  0  0  0  0
   -3.6388    0.2677   25.2708 N   0  0  0  0  0  0  0  0  0  0  0  0
   -3.9304    1.4423   24.4574 C   0  0  2  0  0  0  0  0  0  0  0  0
   -5.3744    1.8493   24.8019 C   0  0  0  0  0  0  0  0  0  0  0  0
   -5.9549    2.7336   24.1780 O   0  0  0  0  0  0  0  0  0  0  0  0
   -3.8031    1.1169   22.9607 C   0  0  0  0  0  0  0  0  0  0  0  0
   -5.0164    0.3651   22.4164 C   0  0  0  0  0  0  0  0  0  0  0  0
   -5.2862    0.7272   20.9557 C   0  0  0  0  0  0  0  0  0  0  0  0
   -6.6157    0.2563   20.5950 N   0  0  0  0  0  0  0  0  0  0  0  0
   -7.5762    1.1414   20.2370 C   0  0  0  0  0  0  0  0  0  0  0  0
   -8.7588    0.5244   20.0405 N   0  0  0  0  0  0  0  0  0  0  0  0
   -7.4113    2.4057   20.1124 N   0  0  0  0  0  0  0  0  0  0  0  0
   -5.9466    1.1540   25.8478 N   0  0  0  0  0  0  0  0  0  0  0  0
   -7.1342    1.6498   26.5422 C   0  0  2  0  0  0  0  0  0  0  0  0
   -6.9271    2.8219   27.5409 C   0  0  0  0  0  0  0  0  0  0  0  0
   -5.9061    2.8277   28.2420 O   0  0  0  0  0  0  0  0  0  0  0  0
   -7.9977    0.5181   27.1521 C   0  0  1  0  0  0  0  0  0  0  0  0
   -9.3433    1.0613   27.6470 C   0  0  0  0  0  0  0  0  0  0  0  0
   -8.2307   -0.6617   26.2110 C   0  0  0  0  0  0  0  0  0  0  0  0
   -7.7947    3.8893   27.6220 N   0  0  0  0  0  0  0  0  0  0  0  0
   -7.5368    4.9777   28.5825 C   0  0  2  0  0  0  0  0  0  0  0  0
   -8.0523    4.5844   29.9933 C   0  0  0  0  0  0  0  0  0  0  0  0
   -8.3335    3.4297   30.3123 O   0  0  0  0  0  0  0  0  0  0  0  0
   -8.2997    6.1632   27.9962 C   0  0  0  0  0  0  0  0  0  0  0  0
   -9.5226    5.5000   27.3773 C   0  0  0  0  0  0  0  0  0  0  0  0
   -8.9792    4.1842   26.8339 C   0  0  0  0  0  0  0  0  0  0  0  0
   -8.1982    5.6491   30.8552 N   0  0  0  0  0  0  0  0  0  0  0  0
   -8.7282    5.5095   32.2040 C   0  0  2  0  0  0  0  0  0  0  0  0
   -8.7705    6.9102   32.8476 C   0  0  0  0  0  0  0  0  0  0  0  0
   -7.9882    7.2667   33.7243 O   0  0  0  0  0  0  0  0  0  0  0  0
   -7.8199    4.5578   32.9878 C   0  0  0  0  0  0  0  0  0  0  0  0
   -7.5142    3.2596   32.2432 C   0  0  0  0  0  0  0  0  0  0  0  0
   -6.6864    2.3263   33.0868 C   0  0  0  0  0  0  0  0  0  0  0  0
   -6.4609    2.8258   34.3162 O   0  0  0  0  0  0  0  0  0  0  0  0
   -6.2600    1.2305   32.7726 O   0  0  0  0  0  0  0  0  0  0  0  0
   -9.7915    7.7176   32.4016 N   0  0  0  0  0  0  0  0  0  0  0  0
  -10.0626    9.0394   32.9869 C   0  0  2  0  0  0  0  0  0  0  0  0
   -9.6213    9.0258   34.4563 C   0  0  0  0  0  0  0  0  0  0  0  0
   -9.2904    9.9772   35.1439 O   0  0  0  0  0  0  0  0  0  0  0  0
  -11.5513    9.4123   32.8797 C   0  0  0  0  0  0  0  0  0  0  0  0
  -11.9339    9.8896   31.4975 C   0  0  0  0  0  0  0  0  0  0  0  0
  -10.9397   10.1532   30.5443 C   0  0  0  0  0  0  0  0  0  0  0  0
  -13.2766   10.1005   31.1556 C   0  0  0  0  0  0  0  0  0  0  0  0
  -11.2839   10.6209   29.2753 C   0  0  0  0  0  0  0  0  0  0  0  0
  -13.6190   10.5650   29.8828 C   0  0  0  0  0  0  0  0  0  0  0  0
  -12.6226   10.8281   28.9456 C   0  0  0  0  0  0  0  0  0  0  0  0
   -9.6173    7.7831   35.0036 O   0  0  0  0  0  0  0  0  0  0  0  0
   -0.3956   -3.9383   22.3366 H   0  0  0  0  0  0  0  0  0  0  0  0
   -6.7055    2.5957   19.4021 H   0  0  0  0  0  0  0  0  0  0  0  0
  1  2  2  0
  1  3  1  0
  1  4  1  0
  4  5  1  0
  5  6  1  0
  5  8  1  6
  6  7  2  0
  6 13  1  0
  8  9  1  0
  9 10  1  0
 10 11  2  0
 10 12  1  0
 14 13  1  1
 14 15  1  0
 14 17  1  0
 15 16  2  0
 15 21  1  0
 17 18  1  0
 17 19  1  6
 18 20  1  0
 21 22  1  0
 22 23  1  0
 22 25  1  6
 23 24  2  0
 23 32  1  0
 25 26  1  0
 26 27  1  0
 27 28  1  0
 28 29  1  0
 29 30  1  0
 29 31  2  0
 32 33  1  0
 33 34  1  0
 33 36  1  6
 34 35  2  0
 34 43  1  0
 36 37  1  0
 37 38  1  0
 38 39  1  0
 39 40  1  0
 40 41  1  0
 40 42  2  0
 44 43  1  1
 44 45  1  0
 44 47  1  0
 45 46  2  0
 45 50  1  0
 47 48  1  6
 47 49  1  0
 50 51  1  0
 50 56  1  0
 51 52  1  1
 51 54  1  0
 52 53  2  0
 52 57  1  0
 54 55  1  0
 55 56  1  0
 57 58  1  0
 58 59  1  0
 58 61  1  1
 59 60  2  0
 59 66  1  0
 61 62  1  0
 62 63  1  0
 63 64  1  0
 63 65  2  0
 66 67  1  0
 67 68  1  0
 67 70  1  1
 68 69  2  0
 68 77  1  0
 70 71  1  0
 71 72  2  0
 71 73  1  0
 72 74  1  0
 73 75  2  0
 74 76  2  0
 75 76  1  0
 31 78  1  0
 42 79  1  0
M  END
$$$$
