
     RDKit          3D

 79 80  0  0  0  0  0  0  0  0999 V2000
   -0.8584   -9.9834   23.7700 C   0  0  0  0  0  0  0  0  0  0  0  0
   -1.3636  -10.9988   23.3107 O   0  0  0  0  0  0  0  0  0  0  0  0
    0.1433  -10.0301   24.8944 C   0  0  0  0  0  0  0  0  0  0  0  0
   -1.1201   -8.7005   23.3331 N   0  0  0  0  0  0  0  0  0  0  0  0
   -0.5158   -7.5094   23.9439 C   0  0  2  0  0  0  0  0  0  0  0  0
   -1.0244   -6.2722   23.1597 C   0  0  0  0  0  0  0  0  0  0  0  0
   -0.9835   -6.2033   21.9291 O   0  0  0  0  0  0  0  0  0  0  0  0
    1.0094   -7.5638   24.0935 C   0  0  0  0  0  0  0  0  0  0  0  0
    1.6052   -6.3322   24.7730 C   0  0  0  0  0  0  0  0  0  0  0  0
    3.1059   -6.3722   24.7337 C   0  0  0  0  0  0  0  0  0  0  0  0
    3.7827   -7.2859   24.2933 O   0  0  0  0  0  0  0  0  0  0  0  0
    3.6763   -5.2614   25.2363 O   0  0  0  0  0  0  0  0  0  0  0  0
   -1.6005   -5.2844   23.9499 N   0  0  0  0  0  0  0  0  0  0  0  0
   -2.9267   -4.7252   23.6057 C   0  0  2  0  0  0  0  0  0  0  0  0
   -3.1786   -3.6307   24.6980 C   0  0  0  0  0  0  0  0  0  0  0  0
   -3.3503   -3.9231   25.8844 O   0  0  0  0  0  0  0  0  0  0  0  0
   -4.0239   -5.8061   23.3580 C   0  0  2  0  0  0  0  0  0  0  0  0
   -5.3685   -5.1251   22.9741 C   0  0  0  0  0  0  0  0  0  0  0  0
   -4.2390   -6.7166   24.5772 C   0  0  0  0  0  0  0  0  0  0  0  0
   -6.3411   -6.0342   22.2283 C   0  0  0  0  0  0  0  0  0  0  0  0
   -3.1150   -2.3191   24.3048 N   0  0  0  0  0  0  0  0  0  0  0  0
   -3.2594   -1.2372   25.2694 C   0  0  2  0  0  0  0  0  0  0  0  0
   -4.4523   -1.5228   26.1937 C   0  0  0  0  0  0  0  0  0  0  0  0
   -5.5225   -1.9636   25.7791 O   0  0  0  0  0  0  0  0  0  0  0  0
   -3.3928    0.1360   24.5940 C   0  0  0  0  0  0  0  0  0  0  0  0
   -2.0516    0.7360   24.1414 C   0  0  0  0  0  0  0  0  0  0  0  0
   -1.1633    1.1512   25.3133 C   0  0  0  0  0  0  0  0  0  0  0  0
   -1.0428    2.5984   25.4196 N   0  0  0  0  0  0  0  0  0  0  0  0
   -1.7787    3.3171   26.2974 C   0  0  0  0  0  0  0  0  0  0  0  0
   -1.5487    2.9116   27.5635 N   0  0  0  0  0  0  0  0  0  0  0  0
   -2.5832    4.2684   25.9998 N   0  0  0  0  0  0  0  0  0  0  0  0
   -4.2370   -1.1932   27.5121 N   0  0  0  0  0  0  0  0  0  0  0  0
   -5.3213   -0.7581   28.3847 C   0  0  2  0  0  0  0  0  0  0  0  0
   -5.8866    0.5260   27.7514 C   0  0  0  0  0  0  0  0  0  0  0  0
   -5.3134    1.0846   26.8200 O   0  0  0  0  0  0  0  0  0  0  0  0
   -4.8024   -0.4776   29.8040 C   0  0  0  0  0  0  0  0  0  0  0  0
   -5.7860   -0.9155   30.8876 C   0  0  0  0  0  0  0  0  0  0  0  0
   -6.2641    0.2750   31.7193 C   0  0  0  0  0  0  0  0  0  0  0  0
   -5.1435    0.7814   32.4986 N   0  0  0  0  0  0  0  0  0  0  0  0
   -4.7947    0.1770   33.6592 C   0  0  0  0  0  0  0  0  0  0  0  0
   -4.4312    1.0822   34.5901 N   0  0  0  0  0  0  0  0  0  0  0  0
   -4.8161   -1.0858   33.8743 N   0  0  0  0  0  0  0  0  0  0  0  0
   -7.0630    0.9860   28.3074 N   0  0  0  0  0  0  0  0  0  0  0  0
   -7.5239    2.3589   28.1049 C   0  0  2  0  0  0  0  0  0  0  0  0
   -7.2905    3.3586   29.2713 C   0  0  0  0  0  0  0  0  0  0  0  0
   -6.9673    2.9091   30.3791 O   0  0  0  0  0  0  0  0  0  0  0  0
   -8.9701    2.4393   27.5568 C   0  0  1  0  0  0  0  0  0  0  0  0
   -9.3955    3.8969   27.3442 C   0  0  0  0  0  0  0  0  0  0  0  0
   -9.1935    1.6428   26.2732 C   0  0  0  0  0  0  0  0  0  0  0  0
   -7.3554    4.7244   29.1016 N   0  0  0  0  0  0  0  0  0  0  0  0
   -7.0670    5.6226   30.2347 C   0  0  2  0  0  0  0  0  0  0  0  0
   -8.3244    5.7782   31.1322 C   0  0  0  0  0  0  0  0  0  0  0  0
   -9.4435    6.0334   30.6890 O   0  0  0  0  0  0  0  0  0  0  0  0
   -6.6691    6.9342   29.5619 C   0  0  0  0  0  0  0  0  0  0  0  0
   -7.5609    6.9604   28.3280 C   0  0  0  0  0  0  0  0  0  0  0  0
   -7.6250    5.4987   27.9021 C   0  0  0  0  0  0  0  0  0  0  0  0
   -8.0743    5.6351   32.4794 N   0  0  0  0  0  0  0  0  0  0  0  0
   -8.9628    6.1538   33.5094 C   0  0  2  0  0  0  0  0  0  0  0  0
   -9.4827    7.5287   33.0430 C   0  0  0  0  0  0  0  0  0  0  0  0
   -9.1383    8.0499   31.9860 O   0  0  0  0  0  0  0  0  0  0  0  0
   -8.1773    6.2646   34.8192 C   0  0  0  0  0  0  0  0  0  0  0  0
   -8.1513    4.9660   35.6232 C   0  0  0  0  0  0  0  0  0  0  0  0
   -9.5096    4.3167   35.6589 C   0  0  0  0  0  0  0  0  0  0  0  0
   -9.4316    2.9794   35.5274 O   0  0  0  0  0  0  0  0  0  0  0  0
  -10.5855    4.8654   35.8097 O   0  0  0  0  0  0  0  0  0  0  0  0
  -10.3252    8.1567   33.9314 N   0  0  0  0  0  0  0  0  0  0  0  0
  -11.3022    9.1708   33.5071 C   0  0  2  0  0  0  0  0  0  0  0  0
  -12.0354    9.6960   34.7484 C   0  0  0  0  0  0  0  0  0  0  0  0
  -12.4946    9.0468   35.6731 O   0  0  0  0  0  0  0  0  0  0  0  0
  -12.3090    8.5991   32.4941 C   0  0  0  0  0  0  0  0  0  0  0  0
  -11.7616    8.5640   31.0856 C   0  0  0  0  0  0  0  0  0  0  0  0
  -11.6108    9.7545   30.3600 C   0  0  0  0  0  0  0  0  0  0  0  0
  -11.4226    7.3484   30.4759 C   0  0  0  0  0  0  0  0  0  0  0  0
  -11.1324    9.7271   29.0492 C   0  0  0  0  0  0  0  0  0  0  0  0
  -10.9398    7.3241   29.1647 C   0  0  0  0  0  0  0  0  0  0  0  0
  -10.7987    8.5124   28.4518 C   0  0  0  0  0  0  0  0  0  0  0  0
  -12.1589   11.0482   34.7663 O   0  0  0  0  0  0  0  0  0  0  0  0
   -2.7552    4.2733   24.9950 H   0  0  0  0  0  0  0  0  0  0  0  0
   -5.2371   -1.5663   33.0801 H   0  0  0  0  0  0  0  0  0  0  0  0
  1  2  2  0
  1  3  1  0
  1  4  1  0
  4  5  1  0
  5  6  1  0
  5  8  1  6
  6  7  2  0
  6 13  1  0
  8  9  1  0
  9 10  1  0
 10 11  2  0
 10 12  1  0
 14 13  1  1
 14 15  1  0
 14 17  1  0
 15 16  2  0
 15 21  1  0
 17 18  1  0
 17 19  1  1
 18 20  1  0
 21 22  1  0
 22 23  1  0
 22 25  1  6
 23 24  2  0
 23 32  1  0
 25 26  1  0
 26 27  1  0
 27 28  1  0
 28 29  1  0
 29 30  1  0
 29 31  2  0
 32 33  1  0
 33 34  1  0
 33 36  1  1
 34 35  2  0
 34 43  1  0
 36 37  1  0
 37 38  1  0
 38 39  1  0
 39 40  1  0
 40 41  1  0
 40 42  2  0
 44 43  1  1
 44 45  1  0
 44 47  1  0
 45 46  2  0
 45 50  1  0
 47 48  1  6
 47 49  1  0
 50 51  1  0
 50 56  1  0
 51 52  1  1
 51 54  1  0
 52 53  2  0
 52 57  1  0
 54 55  1  0
 55 56  1  0
 57 58  1  0
 58 59  1  0
 58 61  1  1
 59 60  2  0
 59 66  1  0
 61 62  1  0
 62 63  1  0
 63 64  1  0
 63 65  2  0
 66 67  1  0
 67 68  1  0
 67 70  1  6
 68 69  2  0
 68 77  1  0
 70 71  1  0
 71 72  2  0
 71 73  1  0
 72 74  1  0
 73 75  2  0
 74 76  2  0
 75 76  1  0
 31 78  1  0
 42 79  1  0
M  END
$$$$
