
     RDKit          3D

 25 28  0  0  0  0  0  0  0  0999 V2000
  -12.5130   10.7654  -27.3678 C   0  0  0  0  0  0  0  0  0  0  0  0
  -12.4969    8.1422  -29.7800 C   0  0  0  0  0  0  0  0  0  0  0  0
  -13.0242    6.0689  -28.4611 C   0  0  0  0  0  0  0  0  0  0  0  0
  -10.7885    5.1672  -28.7449 C   0  0  0  0  0  0  0  0  0  0  0  0
  -11.9366    3.1958  -30.4355 C   0  0  0  0  0  0  0  0  0  0  0  0
  -12.2390    3.0882  -28.1117 C   0  0  0  0  0  0  0  0  0  0  0  0
  -12.1217   11.3666  -23.1404 C   0  0  0  0  0  0  0  0  0  0  0  0
  -13.1446   10.2008  -20.4663 N   0  0  0  0  0  0  0  0  0  0  0  0
  -13.3211    9.6605  -21.7590 C   0  0  0  0  0  0  0  0  0  0  0  0
  -13.9727    8.5212  -22.1073 N   0  0  0  0  0  0  0  0  0  0  0  0
  -13.9279    8.3414  -23.4181 N   0  0  0  0  0  0  0  0  0  0  0  0
  -13.2499    9.3432  -24.0057 C   0  0  0  0  0  0  0  0  0  0  0  0
  -13.0032    9.4698  -25.4489 C   0  0  0  0  0  0  0  0  0  0  0  0
  -13.0328    8.3604  -26.2689 C   0  0  0  0  0  0  0  0  0  0  0  0
  -12.8125    8.3891  -27.6347 C   0  0  0  0  0  0  0  0  0  0  0  0
  -12.5465    9.6492  -28.1688 C   0  0  0  0  0  0  0  0  0  0  0  0
  -12.7403   10.6934  -25.9990 C   0  0  0  0  0  0  0  0  0  0  0  0
  -12.3516    9.4803  -29.5070 C   0  0  0  0  0  0  0  0  0  0  0  0
  -12.7809    7.4803  -28.6202 N   0  0  0  0  0  0  0  0  0  0  0  0
  -12.1945    5.1767  -29.3034 C   0  0  1  0  0  0  0  0  0  0  0  0
   -9.8523    4.3112  -29.5341 C   0  0  0  0  0  0  0  0  0  0  0  0
  -10.4597    3.1646  -30.2528 C   0  0  0  0  0  0  0  0  0  0  0  0
  -12.6433    3.8137  -29.2993 N   0  0  1  0  0  4  0  0  0  0  0  0
  -12.8664   10.1731  -22.9768 C   0  0  0  0  0  0  0  0  0  0  0  0
  -11.5316   12.3421  -23.2850 N   0  0  0  0  0  0  0  0  0  0  0  0
 16  1  2  0
  1 17  1  0
  2 18  2  0
 19  2  1  0
  3 19  1  0
 20  3  1  1
 20  4  1  0
  4 21  1  0
  5 22  1  0
 23  5  1  0
 23  6  1  1
 24  7  1  0
  7 25  3  0
  9  8  1  0
  9 10  1  0
 24  9  2  0
 11 10  1  0
 12 11  2  0
 13 12  1  0
 12 24  1  0
 14 13  1  0
 13 17  2  0
 15 14  2  0
 15 16  1  0
 19 15  1  0
 16 18  1  0
 20 23  1  0
 21 22  1  0
M  CHG  1  23   1
M  END
$$$$
