
     RDKit          3D

 25 28  0  0  0  0  0  0  0  0999 V2000
  -14.0299    8.1575  -27.4667 C   0  0  0  0  0  0  0  0  0  0  0  0
  -12.4891    9.4115  -30.4254 C   0  0  0  0  0  0  0  0  0  0  0  0
  -11.0283   11.2942  -29.6267 C   0  0  0  0  0  0  0  0  0  0  0  0
   -9.4704   12.5393  -31.0103 C   0  0  0  0  0  0  0  0  0  0  0  0
   -8.7048   10.0577  -32.1581 C   0  0  0  0  0  0  0  0  0  0  0  0
   -8.0214   10.6216  -29.9860 C   0  0  0  0  0  0  0  0  0  0  0  0
  -13.4276    8.1326  -23.2121 C   0  0  0  0  0  0  0  0  0  0  0  0
  -12.7998   10.0810  -20.8956 N   0  0  0  0  0  0  0  0  0  0  0  0
  -12.7550   10.3546  -22.2803 C   0  0  0  0  0  0  0  0  0  0  0  0
  -12.4294   11.5224  -22.8917 N   0  0  0  0  0  0  0  0  0  0  0  0
  -12.5001   11.3946  -24.2075 N   0  0  0  0  0  0  0  0  0  0  0  0
  -12.8734   10.1454  -24.5376 C   0  0  0  0  0  0  0  0  0  0  0  0
  -13.0537    9.6473  -25.9084 C   0  0  0  0  0  0  0  0  0  0  0  0
  -12.3845   10.2316  -26.9643 C   0  0  0  0  0  0  0  0  0  0  0  0
  -12.4956    9.8270  -28.2829 C   0  0  0  0  0  0  0  0  0  0  0  0
  -13.3552    8.7522  -28.5058 C   0  0  0  0  0  0  0  0  0  0  0  0
  -13.8901    8.5945  -26.1553 C   0  0  0  0  0  0  0  0  0  0  0  0
  -13.3415    8.5039  -29.8458 C   0  0  0  0  0  0  0  0  0  0  0  0
  -11.9739   10.2206  -29.4539 N   0  0  0  0  0  0  0  0  0  0  0  0
  -10.1876   11.2177  -30.8438 C   0  0  1  0  0  0  0  0  0  0  0  0
   -8.6044   12.5847  -32.2268 C   0  0  0  0  0  0  0  0  0  0  0  0
   -8.0555   11.2869  -32.6901 C   0  0  0  0  0  0  0  0  0  0  0  0
   -9.1698   10.2090  -30.7678 N   0  0  1  0  0  4  0  0  0  0  0  0
  -13.0352    9.4874  -23.3396 C   0  0  0  0  0  0  0  0  0  0  0  0
  -13.7333    7.0283  -23.1229 N   0  0  0  0  0  0  0  0  0  0  0  0
 16  1  2  0
  1 17  1  0
  2 18  2  0
 19  2  1  0
  3 19  1  0
 20  3  1  1
 20  4  1  0
  4 21  1  0
  5 22  1  0
 23  5  1  0
 23  6  1  1
 24  7  1  0
  7 25  3  0
  9  8  1  0
  9 10  1  0
 24  9  2  0
 11 10  1  0
 12 11  2  0
 13 12  1  0
 12 24  1  0
 14 13  1  0
 13 17  2  0
 15 14  2  0
 15 16  1  0
 19 15  1  0
 16 18  1  0
 20 23  1  0
 21 22  1  0
M  CHG  1  23   1
M  END
$$$$
