
     RDKit          3D

 25 28  0  0  0  0  0  0  0  0999 V2000
  -22.7424   17.1519  -12.5176 C   0  0  0  0  0  0  0  0  0  0  0  0
  -25.1880   18.5251  -14.7162 C   0  0  0  0  0  0  0  0  0  0  0  0
  -23.8573   19.8163  -16.4127 C   0  0  0  0  0  0  0  0  0  0  0  0
  -23.0612   22.1069  -16.3072 C   0  0  0  0  0  0  0  0  0  0  0  0
  -25.7313   22.9235  -16.8232 C   0  0  0  0  0  0  0  0  0  0  0  0
  -24.4188   22.0057  -18.5373 C   0  0  0  0  0  0  0  0  0  0  0  0
  -18.5697   15.8804  -13.4469 C   0  0  0  0  0  0  0  0  0  0  0  0
  -15.8290   17.2899  -13.6890 N   0  0  0  0  0  0  0  0  0  0  0  0
  -17.1055   17.8940  -13.6901 C   0  0  0  0  0  0  0  0  0  0  0  0
  -17.4057   19.2140  -13.7968 N   0  0  0  0  0  0  0  0  0  0  0  0
  -18.7161   19.3979  -13.7585 N   0  0  0  0  0  0  0  0  0  0  0  0
  -19.3511   18.2199  -13.6254 C   0  0  0  0  0  0  0  0  0  0  0  0
  -20.8082   18.0444  -13.5485 C   0  0  0  0  0  0  0  0  0  0  0  0
  -21.6393   18.6360  -14.4777 C   0  0  0  0  0  0  0  0  0  0  0  0
  -23.0184   18.5232  -14.4800 C   0  0  0  0  0  0  0  0  0  0  0  0
  -23.5544   17.7488  -13.4519 C   0  0  0  0  0  0  0  0  0  0  0  0
  -21.3603   17.2899  -12.5511 C   0  0  0  0  0  0  0  0  0  0  0  0
  -24.9078   17.7587  -13.6115 C   0  0  0  0  0  0  0  0  0  0  0  0
  -24.0174   18.9901  -15.2429 N   0  0  0  0  0  0  0  0  0  0  0  0
  -24.2899   21.2253  -16.2662 C   0  0  1  0  0  0  0  0  0  0  0  0
  -23.3779   23.5580  -16.1453 C   0  0  0  0  0  0  0  0  0  0  0  0
  -24.7180   23.9927  -16.6090 C   0  0  0  0  0  0  0  0  0  0  0  0
  -25.1453   21.6695  -17.3293 N   0  0  1  0  0  4  0  0  0  0  0  0
  -18.3527   17.2734  -13.5818 C   0  0  0  0  0  0  0  0  0  0  0  0
  -18.7651   14.7534  -13.3354 N   0  0  0  0  0  0  0  0  0  0  0  0
 16  1  2  0
  1 17  1  0
  2 18  2  0
 19  2  1  0
  3 19  1  0
 20  3  1  6
 20  4  1  0
  4 21  1  0
  5 22  1  0
 23  5  1  0
 23  6  1  6
 24  7  1  0
  7 25  3  0
  9  8  1  0
  9 10  1  0
 24  9  2  0
 11 10  1  0
 12 11  2  0
 13 12  1  0
 12 24  1  0
 14 13  1  0
 13 17  2  0
 15 14  2  0
 15 16  1  0
 19 15  1  0
 16 18  1  0
 20 23  1  0
 21 22  1  0
M  CHG  1  23   1
M  END
$$$$
