
     RDKit          3D

 25 28  0  0  0  0  0  0  0  0999 V2000
  -23.6650   20.0013  -11.8755 C   0  0  0  0  0  0  0  0  0  0  0  0
  -24.0351   22.2561   -9.1408 C   0  0  0  0  0  0  0  0  0  0  0  0
  -21.7659   22.3176   -8.0621 C   0  0  0  0  0  0  0  0  0  0  0  0
  -21.2076   23.9339   -6.3394 C   0  0  0  0  0  0  0  0  0  0  0  0
  -21.5482   25.9548   -8.3046 C   0  0  0  0  0  0  0  0  0  0  0  0
  -19.6535   24.5722   -8.3404 C   0  0  0  0  0  0  0  0  0  0  0  0
  -21.1131   16.5094  -12.5778 C   0  0  0  0  0  0  0  0  0  0  0  0
  -18.1233   15.9311  -13.1099 N   0  0  0  0  0  0  0  0  0  0  0  0
  -18.6918   17.1350  -12.6393 C   0  0  0  0  0  0  0  0  0  0  0  0
  -18.0557   18.2915  -12.3205 N   0  0  0  0  0  0  0  0  0  0  0  0
  -18.9245   19.2041  -11.9143 N   0  0  0  0  0  0  0  0  0  0  0  0
  -20.1737   18.7067  -11.9415 C   0  0  0  0  0  0  0  0  0  0  0  0
  -21.3882   19.4397  -11.5571 C   0  0  0  0  0  0  0  0  0  0  0  0
  -21.3844   20.2885  -10.4692 C   0  0  0  0  0  0  0  0  0  0  0  0
  -22.4801   21.0155  -10.0384 C   0  0  0  0  0  0  0  0  0  0  0  0
  -23.6423   20.8423  -10.7889 C   0  0  0  0  0  0  0  0  0  0  0  0
  -22.5414   19.2887  -12.2756 C   0  0  0  0  0  0  0  0  0  0  0  0
  -24.6036   21.6215  -10.2179 C   0  0  0  0  0  0  0  0  0  0  0  0
  -22.7277   21.8759   -9.0402 N   0  0  0  0  0  0  0  0  0  0  0  0
  -21.8252   23.7548   -7.7087 C   0  0  1  0  0  0  0  0  0  0  0  0
  -21.2330   25.3513   -5.8680 C   0  0  0  0  0  0  0  0  0  0  0  0
  -21.2115   26.3939   -6.9228 C   0  0  0  0  0  0  0  0  0  0  0  0
  -21.0782   24.5906   -8.6047 N   0  0  1  0  0  4  0  0  0  0  0  0
  -20.0389   17.4137  -12.3934 C   0  0  0  0  0  0  0  0  0  0  0  0
  -21.9945   15.7842  -12.7124 N   0  0  0  0  0  0  0  0  0  0  0  0
 16  1  2  0
  1 17  1  0
  2 18  2  0
 19  2  1  0
  3 19  1  0
 20  3  1  6
 20  4  1  0
  4 21  1  0
  5 22  1  0
 23  5  1  0
 23  6  1  1
 24  7  1  0
  7 25  3  0
  9  8  1  0
  9 10  1  0
 24  9  2  0
 11 10  1  0
 12 11  2  0
 13 12  1  0
 12 24  1  0
 14 13  1  0
 13 17  2  0
 15 14  2  0
 15 16  1  0
 19 15  1  0
 16 18  1  0
 20 23  1  0
 21 22  1  0
M  CHG  1  23   1
M  END
$$$$
