
     RDKit          3D

 25 28  0  0  0  0  0  0  0  0999 V2000
  -23.7421   18.8237  -11.8230 C   0  0  0  0  0  0  0  0  0  0  0  0
  -24.4111   21.7911   -9.9664 C   0  0  0  0  0  0  0  0  0  0  0  0
  -22.1549   22.8451   -9.6269 C   0  0  0  0  0  0  0  0  0  0  0  0
  -21.5687   21.9539   -7.4466 C   0  0  0  0  0  0  0  0  0  0  0  0
  -21.9604   24.5696   -6.4139 C   0  0  0  0  0  0  0  0  0  0  0  0
  -20.0600   24.0724   -7.6962 C   0  0  0  0  0  0  0  0  0  0  0  0
  -20.4568   16.1000  -12.4632 C   0  0  0  0  0  0  0  0  0  0  0  0
  -17.5066   16.1483  -13.3851 N   0  0  0  0  0  0  0  0  0  0  0  0
  -18.3190   17.2556  -13.0564 C   0  0  0  0  0  0  0  0  0  0  0  0
  -17.9854   18.5717  -13.0731 N   0  0  0  0  0  0  0  0  0  0  0  0
  -19.0139   19.3175  -12.7008 N   0  0  0  0  0  0  0  0  0  0  0  0
  -20.0767   18.5431  -12.4192 C   0  0  0  0  0  0  0  0  0  0  0  0
  -21.3896   19.0318  -11.9748 C   0  0  0  0  0  0  0  0  0  0  0  0
  -21.4993   20.2082  -11.2620 C   0  0  0  0  0  0  0  0  0  0  0  0
  -22.6926   20.7400  -10.8061 C   0  0  0  0  0  0  0  0  0  0  0  0
  -23.8319   19.9974  -11.1140 C   0  0  0  0  0  0  0  0  0  0  0  0
  -22.5229   18.3238  -12.2634 C   0  0  0  0  0  0  0  0  0  0  0  0
  -24.8958   20.6644  -10.5843 C   0  0  0  0  0  0  0  0  0  0  0  0
  -23.0538   21.8275  -10.1096 N   0  0  0  0  0  0  0  0  0  0  0  0
  -22.2140   23.1143   -8.1716 C   0  0  1  0  0  0  0  0  0  0  0  0
  -21.5913   22.1081   -5.9608 C   0  0  0  0  0  0  0  0  0  0  0  0
  -21.5971   23.4990   -5.4457 C   0  0  0  0  0  0  0  0  0  0  0  0
  -21.4901   24.2907   -7.7825 N   0  0  1  0  0  4  0  0  0  0  0  0
  -19.6524   17.2523  -12.6385 C   0  0  0  0  0  0  0  0  0  0  0  0
  -21.1166   15.1725  -12.3040 N   0  0  0  0  0  0  0  0  0  0  0  0
 16  1  2  0
  1 17  1  0
  2 18  2  0
 19  2  1  0
  3 19  1  0
 20  3  1  6
 20  4  1  0
  4 21  1  0
  5 22  1  0
 23  5  1  0
 23  6  1  1
 24  7  1  0
  7 25  3  0
  9  8  1  0
  9 10  1  0
 24  9  2  0
 11 10  1  0
 12 11  2  0
 13 12  1  0
 12 24  1  0
 14 13  1  0
 13 17  2  0
 15 14  2  0
 15 16  1  0
 19 15  1  0
 16 18  1  0
 20 23  1  0
 21 22  1  0
M  CHG  1  23   1
M  END
$$$$
