
     RDKit          3D

 25 28  0  0  0  0  0  0  0  0999 V2000
  -22.4731   18.5080  -13.9445 C   0  0  0  0  0  0  0  0  0  0  0  0
  -24.1132   20.7000  -11.6631 C   0  0  0  0  0  0  0  0  0  0  0  0
  -22.7311   20.5790   -9.5675 C   0  0  0  0  0  0  0  0  0  0  0  0
  -24.6141   21.7645   -8.5976 C   0  0  0  0  0  0  0  0  0  0  0  0
  -22.8078   23.8658   -7.9781 C   0  0  0  0  0  0  0  0  0  0  0  0
  -22.7729   21.8694   -6.7468 C   0  0  0  0  0  0  0  0  0  0  0  0
  -18.0081   17.7902  -14.0717 C   0  0  0  0  0  0  0  0  0  0  0  0
  -16.1181   15.7392  -12.7385 N   0  0  0  0  0  0  0  0  0  0  0  0
  -17.4410   16.0565  -12.3599 C   0  0  0  0  0  0  0  0  0  0  0  0
  -18.1658   15.5350  -11.3369 N   0  0  0  0  0  0  0  0  0  0  0  0
  -19.3709   16.0816  -11.2942 N   0  0  0  0  0  0  0  0  0  0  0  0
  -19.5097   16.9877  -12.2782 C   0  0  0  0  0  0  0  0  0  0  0  0
  -20.7161   17.7877  -12.5320 C   0  0  0  0  0  0  0  0  0  0  0  0
  -21.2416   18.6016  -11.5495 C   0  0  0  0  0  0  0  0  0  0  0  0
  -22.3708   19.3865  -11.7027 C   0  0  0  0  0  0  0  0  0  0  0  0
  -22.9820   19.3129  -12.9538 C   0  0  0  0  0  0  0  0  0  0  0  0
  -21.3352   17.7349  -13.7498 C   0  0  0  0  0  0  0  0  0  0  0  0
  -24.0669   20.1368  -12.9148 C   0  0  0  0  0  0  0  0  0  0  0  0
  -23.0642   20.2313  -10.9257 N   0  0  0  0  0  0  0  0  0  0  0  0
  -23.1993   21.9089   -9.1133 C   0  0  1  0  0  0  0  0  0  0  0  0
  -25.2001   23.0569   -8.1301 C   0  0  0  0  0  0  0  0  0  0  0  0
  -24.2396   24.0679   -7.6249 C   0  0  0  0  0  0  0  0  0  0  0  0
  -22.4240   22.4439   -8.0307 N   0  0  1  0  0  4  0  0  0  0  0  0
  -18.3085   16.9794  -12.9501 C   0  0  0  0  0  0  0  0  0  0  0  0
  -17.7791   18.4397  -14.9918 N   0  0  0  0  0  0  0  0  0  0  0  0
 16  1  2  0
  1 17  1  0
  2 18  2  0
 19  2  1  0
  3 19  1  0
 20  3  1  1
 20  4  1  0
  4 21  1  0
  5 22  1  0
 23  5  1  0
 23  6  1  1
 24  7  1  0
  7 25  3  0
  9  8  1  0
  9 10  1  0
 24  9  2  0
 11 10  1  0
 12 11  2  0
 13 12  1  0
 12 24  1  0
 14 13  1  0
 13 17  2  0
 15 14  2  0
 15 16  1  0
 19 15  1  0
 16 18  1  0
 20 23  1  0
 21 22  1  0
M  CHG  1  23   1
M  END
$$$$
