
     RDKit          3D

 25 28  0  0  0  0  0  0  0  0999 V2000
  -23.8308   18.3820  -12.0349 C   0  0  0  0  0  0  0  0  0  0  0  0
  -24.8445   21.4799  -10.5942 C   0  0  0  0  0  0  0  0  0  0  0  0
  -22.7220   22.8123  -10.4048 C   0  0  0  0  0  0  0  0  0  0  0  0
  -21.3663   23.5511   -8.5317 C   0  0  0  0  0  0  0  0  0  0  0  0
  -23.7703   24.4333   -7.3050 C   0  0  0  0  0  0  0  0  0  0  0  0
  -22.8489   25.6252   -9.1032 C   0  0  0  0  0  0  0  0  0  0  0  0
  -20.1608   16.0277  -12.0081 C   0  0  0  0  0  0  0  0  0  0  0  0
  -17.2656   16.2539  -13.0676 N   0  0  0  0  0  0  0  0  0  0  0  0
  -18.2291   17.2828  -12.9832 C   0  0  0  0  0  0  0  0  0  0  0  0
  -18.0961   18.5847  -13.3456 N   0  0  0  0  0  0  0  0  0  0  0  0
  -19.2186   19.2484  -13.1173 N   0  0  0  0  0  0  0  0  0  0  0  0
  -20.1494   18.4298  -12.5955 C   0  0  0  0  0  0  0  0  0  0  0  0
  -21.5134   18.8260  -12.2184 C   0  0  0  0  0  0  0  0  0  0  0  0
  -21.7605   20.0681  -11.6705 C   0  0  0  0  0  0  0  0  0  0  0  0
  -23.0107   20.5215  -11.2880 C   0  0  0  0  0  0  0  0  0  0  0  0
  -24.0576   19.6233  -11.4906 C   0  0  0  0  0  0  0  0  0  0  0  0
  -22.5586   17.9650  -12.4064 C   0  0  0  0  0  0  0  0  0  0  0  0
  -25.1949   20.2339  -11.0535 C   0  0  0  0  0  0  0  0  0  0  0  0
  -23.4977   21.6462  -10.7439 N   0  0  0  0  0  0  0  0  0  0  0  0
  -22.7729   23.2245   -8.9830 C   0  0  1  0  0  0  0  0  0  0  0  0
  -21.2936   23.9607   -7.0968 C   0  0  0  0  0  0  0  0  0  0  0  0
  -22.5074   24.6023   -6.5355 C   0  0  0  0  0  0  0  0  0  0  0  0
  -23.5558   24.4068   -8.7629 N   0  0  1  0  0  4  0  0  0  0  0  0
  -19.5404   17.1986  -12.5078 C   0  0  0  0  0  0  0  0  0  0  0  0
  -20.6821   15.0854  -11.6065 N   0  0  0  0  0  0  0  0  0  0  0  0
 16  1  2  0
  1 17  1  0
  2 18  2  0
 19  2  1  0
  3 19  1  0
 20  3  1  6
 20  4  1  0
  4 21  1  0
  5 22  1  0
 23  5  1  0
 23  6  1  1
 24  7  1  0
  7 25  3  0
  9  8  1  0
  9 10  1  0
 24  9  2  0
 11 10  1  0
 12 11  2  0
 13 12  1  0
 12 24  1  0
 14 13  1  0
 13 17  2  0
 15 14  2  0
 15 16  1  0
 19 15  1  0
 16 18  1  0
 20 23  1  0
 21 22  1  0
M  CHG  1  23   1
M  END
$$$$
