
     RDKit          3D

 25 28  0  0  0  0  0  0  0  0999 V2000
  -23.3461   18.8137  -11.7103 C   0  0  0  0  0  0  0  0  0  0  0  0
  -23.9841   21.9005  -10.0475 C   0  0  0  0  0  0  0  0  0  0  0  0
  -21.7050   22.8678   -9.6161 C   0  0  0  0  0  0  0  0  0  0  0  0
  -22.9054   24.3110   -8.0774 C   0  0  0  0  0  0  0  0  0  0  0  0
  -22.0600   26.5017   -9.6738 C   0  0  0  0  0  0  0  0  0  0  0  0
  -20.5398   25.4047   -8.2637 C   0  0  0  0  0  0  0  0  0  0  0  0
  -20.3247   16.3122  -13.3144 C   0  0  0  0  0  0  0  0  0  0  0  0
  -17.2526   16.0033  -13.4660 N   0  0  0  0  0  0  0  0  0  0  0  0
  -17.9790   17.0380  -12.8368 C   0  0  0  0  0  0  0  0  0  0  0  0
  -17.4916   18.1138  -12.1667 N   0  0  0  0  0  0  0  0  0  0  0  0
  -18.4811   18.8678  -11.7140 N   0  0  0  0  0  0  0  0  0  0  0  0
  -19.6687   18.3375  -12.0562 C   0  0  0  0  0  0  0  0  0  0  0  0
  -20.9813   18.9073  -11.7212 C   0  0  0  0  0  0  0  0  0  0  0  0
  -21.0779   20.1228  -11.0752 C   0  0  0  0  0  0  0  0  0  0  0  0
  -22.2700   20.7308  -10.7231 C   0  0  0  0  0  0  0  0  0  0  0  0
  -23.4226   20.0255  -11.0667 C   0  0  0  0  0  0  0  0  0  0  0  0
  -22.1276   18.2372  -12.0468 C   0  0  0  0  0  0  0  0  0  0  0  0
  -24.4837   20.7663  -10.6394 C   0  0  0  0  0  0  0  0  0  0  0  0
  -22.6205   21.8681  -10.1051 N   0  0  0  0  0  0  0  0  0  0  0  0
  -22.2700   24.2265   -9.4478 C   0  0  1  0  0  0  0  0  0  0  0  0
  -23.5313   25.6399   -7.8048 C   0  0  0  0  0  0  0  0  0  0  0  0
  -22.9364   26.8021   -8.5087 C   0  0  0  0  0  0  0  0  0  0  0  0
  -21.2795   25.2635   -9.5019 N   0  0  1  0  0  4  0  0  0  0  0  0
  -19.3655   17.1933  -12.7585 C   0  0  0  0  0  0  0  0  0  0  0  0
  -21.1175   15.6067  -13.7556 N   0  0  0  0  0  0  0  0  0  0  0  0
 16  1  2  0
  1 17  1  0
  2 18  2  0
 19  2  1  0
  3 19  1  0
 20  3  1  1
 20  4  1  0
  4 21  1  0
  5 22  1  0
 23  5  1  0
 23  6  1  1
 24  7  1  0
  7 25  3  0
  9  8  1  0
  9 10  1  0
 24  9  2  0
 11 10  1  0
 12 11  2  0
 13 12  1  0
 12 24  1  0
 14 13  1  0
 13 17  2  0
 15 14  2  0
 15 16  1  0
 19 15  1  0
 16 18  1  0
 20 23  1  0
 21 22  1  0
M  CHG  1  23   1
M  END
$$$$
