
     RDKit          3D

 25 28  0  0  0  0  0  0  0  0999 V2000
  -23.7205   18.1401  -11.8205 C   0  0  0  0  0  0  0  0  0  0  0  0
  -24.7617   21.3068  -10.5602 C   0  0  0  0  0  0  0  0  0  0  0  0
  -22.6865   22.7232  -10.6204 C   0  0  0  0  0  0  0  0  0  0  0  0
  -21.7444   22.3611   -8.4129 C   0  0  0  0  0  0  0  0  0  0  0  0
  -22.5133   25.0221   -7.7884 C   0  0  0  0  0  0  0  0  0  0  0  0
  -20.6823   24.6157   -9.1974 C   0  0  0  0  0  0  0  0  0  0  0  0
  -20.3260   15.8226  -12.8875 C   0  0  0  0  0  0  0  0  0  0  0  0
  -17.3572   16.1088  -13.7006 N   0  0  0  0  0  0  0  0  0  0  0  0
  -18.2414   17.1388  -13.3114 C   0  0  0  0  0  0  0  0  0  0  0  0
  -17.9835   18.4681  -13.2100 N   0  0  0  0  0  0  0  0  0  0  0  0
  -19.0638   19.1230  -12.8140 N   0  0  0  0  0  0  0  0  0  0  0  0
  -20.0883   18.2708  -12.6327 C   0  0  0  0  0  0  0  0  0  0  0  0
  -21.4397   18.6483  -12.1956 C   0  0  0  0  0  0  0  0  0  0  0  0
  -21.7002   19.9212  -11.7308 C   0  0  0  0  0  0  0  0  0  0  0  0
  -22.9399   20.3600  -11.3004 C   0  0  0  0  0  0  0  0  0  0  0  0
  -23.9610   19.4125  -11.3604 C   0  0  0  0  0  0  0  0  0  0  0  0
  -22.4595   17.7391  -12.2441 C   0  0  0  0  0  0  0  0  0  0  0  0
  -25.0910   20.0164  -10.8958 C   0  0  0  0  0  0  0  0  0  0  0  0
  -23.4352   21.5073  -10.8138 N   0  0  0  0  0  0  0  0  0  0  0  0
  -22.6576   23.2443   -9.2342 C   0  0  1  0  0  0  0  0  0  0  0  0
  -21.6559   22.7825   -6.9823 C   0  0  0  0  0  0  0  0  0  0  0  0
  -21.8697   24.2245   -6.7088 C   0  0  0  0  0  0  0  0  0  0  0  0
  -22.1298   24.5754   -9.1395 N   0  0  1  0  0  4  0  0  0  0  0  0
  -19.5842   17.0278  -12.9411 C   0  0  0  0  0  0  0  0  0  0  0  0
  -20.9120   14.8353  -12.8365 N   0  0  0  0  0  0  0  0  0  0  0  0
 16  1  2  0
  1 17  1  0
  2 18  2  0
 19  2  1  0
  3 19  1  0
 20  3  1  6
 20  4  1  0
  4 21  1  0
  5 22  1  0
 23  5  1  0
 23  6  1  1
 24  7  1  0
  7 25  3  0
  9  8  1  0
  9 10  1  0
 24  9  2  0
 11 10  1  0
 12 11  2  0
 13 12  1  0
 12 24  1  0
 14 13  1  0
 13 17  2  0
 15 14  2  0
 15 16  1  0
 19 15  1  0
 16 18  1  0
 20 23  1  0
 21 22  1  0
M  CHG  1  23   1
M  END
$$$$
