
     RDKit          3D

 25 28  0  0  0  0  0  0  0  0999 V2000
  -12.7966   10.1999  -28.2913 C   0  0  0  0  0  0  0  0  0  0  0  0
  -12.7210    7.2340  -30.2656 C   0  0  0  0  0  0  0  0  0  0  0  0
  -12.9659    5.3639  -28.6046 C   0  0  0  0  0  0  0  0  0  0  0  0
  -11.1825    4.1912  -27.4486 C   0  0  0  0  0  0  0  0  0  0  0  0
  -10.6685    2.8321  -29.8881 C   0  0  0  0  0  0  0  0  0  0  0  0
  -12.5536    2.2894  -28.6018 C   0  0  0  0  0  0  0  0  0  0  0  0
  -12.1906   11.5124  -24.2585 C   0  0  0  0  0  0  0  0  0  0  0  0
  -12.8964   10.7073  -21.3585 N   0  0  0  0  0  0  0  0  0  0  0  0
  -13.1064    9.9507  -22.5323 C   0  0  0  0  0  0  0  0  0  0  0  0
  -13.6591    8.7154  -22.6430 N   0  0  0  0  0  0  0  0  0  0  0  0
  -13.6881    8.3302  -23.9093 N   0  0  0  0  0  0  0  0  0  0  0  0
  -13.1607    9.2811  -24.7007 C   0  0  0  0  0  0  0  0  0  0  0  0
  -13.0307    9.1940  -26.1619 C   0  0  0  0  0  0  0  0  0  0  0  0
  -13.0204    7.9688  -26.7967 C   0  0  0  0  0  0  0  0  0  0  0  0
  -12.9023    7.7957  -28.1645 C   0  0  0  0  0  0  0  0  0  0  0  0
  -12.7883    8.9709  -28.9060 C   0  0  0  0  0  0  0  0  0  0  0  0
  -12.9177   10.3304  -26.9133 C   0  0  0  0  0  0  0  0  0  0  0  0
  -12.6758    8.6057  -30.2142 C   0  0  0  0  0  0  0  0  0  0  0  0
  -12.8609    6.7462  -28.9981 N   0  0  0  0  0  0  0  0  0  0  0  0
  -11.7476    4.5460  -28.8064 C   0  0  1  0  0  0  0  0  0  0  0  0
   -9.9308    3.3797  -27.5309 C   0  0  0  0  0  0  0  0  0  0  0  0
   -9.7816    2.5239  -28.7330 C   0  0  0  0  0  0  0  0  0  0  0  0
  -12.0032    3.3039  -29.4781 N   0  0  1  0  0  4  0  0  0  0  0  0
  -12.7940   10.2984  -23.8491 C   0  0  0  0  0  0  0  0  0  0  0  0
  -11.7012   12.5040  -24.5719 N   0  0  0  0  0  0  0  0  0  0  0  0
 16  1  2  0
  1 17  1  0
  2 18  2  0
 19  2  1  0
  3 19  1  0
 20  3  1  1
 20  4  1  0
  4 21  1  0
  5 22  1  0
 23  5  1  0
 23  6  1  1
 24  7  1  0
  7 25  3  0
  9  8  1  0
  9 10  1  0
 24  9  2  0
 11 10  1  0
 12 11  2  0
 13 12  1  0
 12 24  1  0
 14 13  1  0
 13 17  2  0
 15 14  2  0
 15 16  1  0
 19 15  1  0
 16 18  1  0
 20 23  1  0
 21 22  1  0
M  CHG  1  23   1
M  END
$$$$
