
     RDKit          3D

 25 28  0  0  0  0  0  0  0  0999 V2000
  -23.3699   18.0024  -11.4102 C   0  0  0  0  0  0  0  0  0  0  0  0
  -24.8553   21.0812  -10.4029 C   0  0  0  0  0  0  0  0  0  0  0  0
  -22.9819   22.7527  -10.5170 C   0  0  0  0  0  0  0  0  0  0  0  0
  -22.2783   22.7160   -8.1942 C   0  0  0  0  0  0  0  0  0  0  0  0
  -23.3544   25.3332   -7.9601 C   0  0  0  0  0  0  0  0  0  0  0  0
  -21.3404   24.9765   -9.1089 C   0  0  0  0  0  0  0  0  0  0  0  0
  -19.8840   16.3018  -13.1529 C   0  0  0  0  0  0  0  0  0  0  0  0
  -16.8586   16.8281  -13.5085 N   0  0  0  0  0  0  0  0  0  0  0  0
  -17.8149   17.6894  -12.9271 C   0  0  0  0  0  0  0  0  0  0  0  0
  -17.6167   18.9258  -12.4018 N   0  0  0  0  0  0  0  0  0  0  0  0
  -18.7552   19.4270  -11.9488 N   0  0  0  0  0  0  0  0  0  0  0  0
  -19.7619   18.5577  -12.1472 C   0  0  0  0  0  0  0  0  0  0  0  0
  -21.1643   18.7816  -11.7689 C   0  0  0  0  0  0  0  0  0  0  0  0
  -21.6034   20.0373  -11.4020 C   0  0  0  0  0  0  0  0  0  0  0  0
  -22.9029   20.3362  -11.0323 C   0  0  0  0  0  0  0  0  0  0  0  0
  -23.7890   19.2599  -11.0477 C   0  0  0  0  0  0  0  0  0  0  0  0
  -22.0545   17.7442  -11.7755 C   0  0  0  0  0  0  0  0  0  0  0  0
  -25.0024   19.7388  -10.6530 C   0  0  0  0  0  0  0  0  0  0  0  0
  -23.5589   21.4380  -10.6401 N   0  0  0  0  0  0  0  0  0  0  0  0
  -23.1646   23.4122   -9.2034 C   0  0  1  0  0  0  0  0  0  0  0  0
  -22.3982   23.2876   -6.8191 C   0  0  0  0  0  0  0  0  0  0  0  0
  -22.7731   24.7201   -6.7346 C   0  0  0  0  0  0  0  0  0  0  0  0
  -22.7749   24.7933   -9.2030 N   0  0  1  0  0  4  0  0  0  0  0  0
  -19.1843   17.4681  -12.7583 C   0  0  0  0  0  0  0  0  0  0  0  0
  -20.4517   15.3617  -13.4918 N   0  0  0  0  0  0  0  0  0  0  0  0
 16  1  2  0
  1 17  1  0
  2 18  2  0
 19  2  1  0
  3 19  1  0
 20  3  1  6
 20  4  1  0
  4 21  1  0
  5 22  1  0
 23  5  1  0
 23  6  1  1
 24  7  1  0
  7 25  3  0
  9  8  1  0
  9 10  1  0
 24  9  2  0
 11 10  1  0
 12 11  2  0
 13 12  1  0
 12 24  1  0
 14 13  1  0
 13 17  2  0
 15 14  2  0
 15 16  1  0
 19 15  1  0
 16 18  1  0
 20 23  1  0
 21 22  1  0
M  CHG  1  23   1
M  END
$$$$
