
     RDKit          3D

 25 28  0  0  0  0  0  0  0  0999 V2000
  -14.8256    7.9550  -26.5216 C   0  0  0  0  0  0  0  0  0  0  0  0
  -13.0505    7.7687  -29.6062 C   0  0  0  0  0  0  0  0  0  0  0  0
  -10.9781    9.1384  -29.2253 C   0  0  0  0  0  0  0  0  0  0  0  0
   -9.6925   10.5203  -30.7515 C   0  0  0  0  0  0  0  0  0  0  0  0
  -10.9507    9.1196  -32.8769 C   0  0  0  0  0  0  0  0  0  0  0  0
   -9.2803    8.0828  -31.5972 C   0  0  0  0  0  0  0  0  0  0  0  0
  -13.8290    8.6179  -22.3494 C   0  0  0  0  0  0  0  0  0  0  0  0
  -12.5750   10.8186  -20.5772 N   0  0  0  0  0  0  0  0  0  0  0  0
  -12.5750   10.7520  -21.9878 C   0  0  0  0  0  0  0  0  0  0  0  0
  -12.0293   11.6318  -22.8664 N   0  0  0  0  0  0  0  0  0  0  0  0
  -12.2315   11.2317  -24.1121 N   0  0  0  0  0  0  0  0  0  0  0  0
  -12.9165   10.0745  -24.1273 C   0  0  0  0  0  0  0  0  0  0  0  0
  -13.3174    9.3408  -25.3360 C   0  0  0  0  0  0  0  0  0  0  0  0
  -12.5234    9.3543  -26.4644 C   0  0  0  0  0  0  0  0  0  0  0  0
  -12.8238    8.6931  -27.6422 C   0  0  0  0  0  0  0  0  0  0  0  0
  -14.0219    7.9800  -27.6360 C   0  0  0  0  0  0  0  0  0  0  0  0
  -14.4868    8.6331  -25.3572 C   0  0  0  0  0  0  0  0  0  0  0  0
  -14.1505    7.4089  -28.8667 C   0  0  0  0  0  0  0  0  0  0  0  0
  -12.2406    8.5588  -28.8422 N   0  0  0  0  0  0  0  0  0  0  0  0
  -10.8825    9.5940  -30.6314 C   0  0  1  0  0  0  0  0  0  0  0  0
   -9.5110   11.0620  -32.1320 C   0  0  0  0  0  0  0  0  0  0  0  0
  -10.0058   10.2105  -33.2411 C   0  0  0  0  0  0  0  0  0  0  0  0
  -10.6604    8.5234  -31.5608 N   0  0  1  0  0  4  0  0  0  0  0  0
  -13.1361    9.7663  -22.8040 C   0  0  0  0  0  0  0  0  0  0  0  0
  -14.4085    7.6959  -21.9819 N   0  0  0  0  0  0  0  0  0  0  0  0
 16  1  2  0
  1 17  1  0
  2 18  2  0
 19  2  1  0
  3 19  1  0
 20  3  1  1
 20  4  1  0
  4 21  1  0
  5 22  1  0
 23  5  1  0
 23  6  1  6
 24  7  1  0
  7 25  3  0
  9  8  1  0
  9 10  1  0
 24  9  2  0
 11 10  1  0
 12 11  2  0
 13 12  1  0
 12 24  1  0
 14 13  1  0
 13 17  2  0
 15 14  2  0
 15 16  1  0
 19 15  1  0
 16 18  1  0
 20 23  1  0
 21 22  1  0
M  CHG  1  23   1
M  END
$$$$
