
     RDKit          3D

 25 28  0  0  0  0  0  0  0  0999 V2000
  -23.8799   19.1628  -11.3205 C   0  0  0  0  0  0  0  0  0  0  0  0
  -24.2422   22.4725  -10.0500 C   0  0  0  0  0  0  0  0  0  0  0  0
  -21.9290   23.4486  -10.1632 C   0  0  0  0  0  0  0  0  0  0  0  0
  -21.0129   22.9647   -7.9681 C   0  0  0  0  0  0  0  0  0  0  0  0
  -21.3269   25.7227   -7.3701 C   0  0  0  0  0  0  0  0  0  0  0  0
  -19.6155   25.0072   -8.8062 C   0  0  0  0  0  0  0  0  0  0  0  0
  -21.1343   16.3273  -12.8587 C   0  0  0  0  0  0  0  0  0  0  0  0
  -18.1451   15.9698  -13.5610 N   0  0  0  0  0  0  0  0  0  0  0  0
  -18.7681   17.1207  -13.0303 C   0  0  0  0  0  0  0  0  0  0  0  0
  -18.1959   18.3111  -12.7152 N   0  0  0  0  0  0  0  0  0  0  0  0
  -19.1018   19.1519  -12.2407 N   0  0  0  0  0  0  0  0  0  0  0  0
  -20.3139   18.5698  -12.2155 C   0  0  0  0  0  0  0  0  0  0  0  0
  -21.5530   19.2080  -11.7494 C   0  0  0  0  0  0  0  0  0  0  0  0
  -21.5447   20.5070  -11.2840 C   0  0  0  0  0  0  0  0  0  0  0  0
  -22.6623   21.1832  -10.8275 C   0  0  0  0  0  0  0  0  0  0  0  0
  -23.8523   20.4574  -10.8604 C   0  0  0  0  0  0  0  0  0  0  0  0
  -22.7338   18.5195  -11.7710 C   0  0  0  0  0  0  0  0  0  0  0  0
  -24.8289   21.2734  -10.3727 C   0  0  0  0  0  0  0  0  0  0  0  0
  -22.9085   22.4057  -10.3345 N   0  0  0  0  0  0  0  0  0  0  0  0
  -21.7874   23.9747   -8.7858 C   0  0  1  0  0  0  0  0  0  0  0  0
  -20.8277   23.3834   -6.5460 C   0  0  0  0  0  0  0  0  0  0  0  0
  -20.7991   24.8442   -6.2906 C   0  0  0  0  0  0  0  0  0  0  0  0
  -21.0488   25.2033   -8.7211 N   0  0  1  0  0  4  0  0  0  0  0  0
  -20.1158   17.2996  -12.7072 C   0  0  0  0  0  0  0  0  0  0  0  0
  -21.9643   15.5391  -12.9620 N   0  0  0  0  0  0  0  0  0  0  0  0
 16  1  2  0
  1 17  1  0
  2 18  2  0
 19  2  1  0
  3 19  1  0
 20  3  1  6
 20  4  1  0
  4 21  1  0
  5 22  1  0
 23  5  1  0
 23  6  1  1
 24  7  1  0
  7 25  3  0
  9  8  1  0
  9 10  1  0
 24  9  2  0
 11 10  1  0
 12 11  2  0
 13 12  1  0
 12 24  1  0
 14 13  1  0
 13 17  2  0
 15 14  2  0
 15 16  1  0
 19 15  1  0
 16 18  1  0
 20 23  1  0
 21 22  1  0
M  CHG  1  23   1
M  END
$$$$
