
     RDKit          3D

 25 28  0  0  0  0  0  0  0  0999 V2000
  -23.7311   19.5720  -11.3921 C   0  0  0  0  0  0  0  0  0  0  0  0
  -23.8410   22.6836   -9.6583 C   0  0  0  0  0  0  0  0  0  0  0  0
  -21.4448   23.4350   -9.5581 C   0  0  0  0  0  0  0  0  0  0  0  0
  -21.6709   23.6702   -7.1528 C   0  0  0  0  0  0  0  0  0  0  0  0
  -21.4937   26.4776   -7.5392 C   0  0  0  0  0  0  0  0  0  0  0  0
  -19.5851   25.1289   -7.7428 C   0  0  0  0  0  0  0  0  0  0  0  0
  -21.0270   16.4498  -12.4910 C   0  0  0  0  0  0  0  0  0  0  0  0
  -18.1304   16.0327  -13.4870 N   0  0  0  0  0  0  0  0  0  0  0  0
  -18.7192   17.2386  -13.0473 C   0  0  0  0  0  0  0  0  0  0  0  0
  -18.1474   18.4675  -12.9665 N   0  0  0  0  0  0  0  0  0  0  0  0
  -19.0150   19.3554  -12.5067 N   0  0  0  0  0  0  0  0  0  0  0  0
  -20.1996   18.7687  -12.2596 C   0  0  0  0  0  0  0  0  0  0  0  0
  -21.3935   19.4510  -11.7410 C   0  0  0  0  0  0  0  0  0  0  0  0
  -21.2856   20.6623  -11.0890 C   0  0  0  0  0  0  0  0  0  0  0  0
  -22.3547   21.3716  -10.5708 C   0  0  0  0  0  0  0  0  0  0  0  0
  -23.6041   20.7778  -10.7454 C   0  0  0  0  0  0  0  0  0  0  0  0
  -22.6308   18.8915  -11.8988 C   0  0  0  0  0  0  0  0  0  0  0  0
  -24.5213   21.6066  -10.1716 C   0  0  0  0  0  0  0  0  0  0  0  0
  -22.5081   22.5284   -9.9102 N   0  0  0  0  0  0  0  0  0  0  0  0
  -21.7557   24.3979   -8.4764 C   0  0  1  0  0  0  0  0  0  0  0  0
  -21.9893   24.5446   -5.9840 C   0  0  0  0  0  0  0  0  0  0  0  0
  -21.6996   25.9900   -6.1480 C   0  0  0  0  0  0  0  0  0  0  0  0
  -20.8248   25.4876   -8.4021 N   0  0  1  0  0  4  0  0  0  0  0  0
  -20.0249   17.4451  -12.5944 C   0  0  0  0  0  0  0  0  0  0  0  0
  -21.8401   15.6442  -12.3873 N   0  0  0  0  0  0  0  0  0  0  0  0
 16  1  2  0
  1 17  1  0
  2 18  2  0
 19  2  1  0
  3 19  1  0
 20  3  1  6
 20  4  1  0
  4 21  1  0
  5 22  1  0
 23  5  1  0
 23  6  1  1
 24  7  1  0
  7 25  3  0
  9  8  1  0
  9 10  1  0
 24  9  2  0
 11 10  1  0
 12 11  2  0
 13 12  1  0
 12 24  1  0
 14 13  1  0
 13 17  2  0
 15 14  2  0
 15 16  1  0
 19 15  1  0
 16 18  1  0
 20 23  1  0
 21 22  1  0
M  CHG  1  23   1
M  END
$$$$
