
     RDKit          3D

 26 27  0  0  0  0  0  0  0  0999 V2000
    0.2168   -7.3118  -21.3707 C   0  0  1  0  0  0  0  0  0  0  0  0
   -0.8523   -6.4002  -20.8140 C   0  0  1  0  0  0  0  0  0  0  0  0
   -0.9748   -5.1338  -21.6365 C   0  0  2  0  0  0  0  0  0  0  0  0
   -1.3063   -5.5764  -23.0173 C   0  0  0  0  0  0  0  0  0  0  0  0
   -0.5558   -6.5447  -23.5177 C   0  0  0  0  0  0  0  0  0  0  0  0
   -0.8328   -7.0234  -24.8722 C   0  0  0  0  0  0  0  0  0  0  0  0
   -2.0900   -7.0427  -20.8613 O   0  0  0  0  0  0  0  0  0  0  0  0
    0.2466   -4.4602  -21.7179 O   0  0  0  0  0  0  0  0  0  0  0  0
    0.4538   -7.0453  -22.7154 O   0  0  0  0  0  0  0  0  0  0  0  0
   -1.9431   -6.6191  -25.5929 O   0  0  0  0  0  0  0  0  0  0  0  0
   -0.0554   -7.8283  -25.4249 O   0  0  0  0  0  0  0  0  0  0  0  0
    3.5186   -8.9686  -18.3590 C   0  0  2  0  0  0  0  0  0  0  0  0
    2.2729   -8.1506  -18.6056 C   0  0  1  0  0  0  0  0  0  0  0  0
    1.7640   -8.3760  -20.0141 C   0  0  2  0  0  0  0  0  0  0  0  0
    2.8869   -8.9013  -20.8750 C   0  0  1  0  0  0  0  0  0  0  0  0
    3.3492  -10.2072  -20.3060 C   0  0  1  0  0  0  0  0  0  0  0  0
    4.6101  -10.6159  -21.0249 C   0  0  0  0  0  0  0  0  0  0  0  0
    0.6544   -7.5573  -16.7567 C   0  0  0  0  0  0  0  0  0  0  0  0
   -0.3584   -7.9693  -15.7312 C   0  0  0  0  0  0  0  0  0  0  0  0
    1.2060   -8.4793  -17.6836 N   0  0  0  0  0  0  0  0  0  0  0  0
    4.6300   -8.3246  -18.9023 O   0  0  0  0  0  0  0  0  0  0  0  0
    1.3340   -7.1816  -20.5623 O   0  0  0  0  0  0  0  0  0  0  0  0
    2.3492   -9.1777  -22.1486 O   0  0  0  0  0  0  0  0  0  0  0  0
    3.4568  -10.2292  -18.9392 O   0  0  0  0  0  0  0  0  0  0  0  0
    5.4255   -9.5133  -21.3087 O   0  0  0  0  0  0  0  0  0  0  0  0
    1.0144   -6.3685  -16.7861 O   0  0  0  0  0  0  0  0  0  0  0  0
  1  2  1  0
  1  9  1  0
  1 22  1  1
  2  3  1  0
  2  7  1  6
  3  4  1  0
  3  8  1  6
  5  4  2  0
  5  6  1  0
  9  5  1  0
  6 10  1  0
  6 11  2  0
 13 12  1  0
 12 21  1  6
 12 24  1  0
 13 14  1  0
 13 20  1  1
 14 15  1  0
 14 22  1  6
 15 16  1  0
 15 23  1  6
 16 17  1  6
 24 16  1  0
 17 25  1  0
 18 19  1  0
 18 20  1  0
 18 26  2  0
M  END
$$$$
