
     RDKit          3D

 26 27  0  0  0  0  0  0  0  0999 V2000
    0.0916   -7.2339  -21.6829 C   0  0  1  0  0  0  0  0  0  0  0  0
   -1.0911   -6.4799  -21.1200 C   0  0  1  0  0  0  0  0  0  0  0  0
   -1.3553   -5.2110  -21.9045 C   0  0  2  0  0  0  0  0  0  0  0  0
   -1.6063   -5.6439  -23.3052 C   0  0  0  0  0  0  0  0  0  0  0  0
   -0.7336   -6.4950  -23.8201 C   0  0  0  0  0  0  0  0  0  0  0  0
   -0.9266   -6.9579  -25.1946 C   0  0  0  0  0  0  0  0  0  0  0  0
   -2.2390   -7.2677  -21.2134 O   0  0  0  0  0  0  0  0  0  0  0  0
   -0.2251   -4.3900  -21.9390 O   0  0  0  0  0  0  0  0  0  0  0  0
    0.3165   -6.8947  -23.0131 O   0  0  0  0  0  0  0  0  0  0  0  0
    0.0268   -7.6977  -25.8725 O   0  0  0  0  0  0  0  0  0  0  0  0
   -1.9819   -6.6905  -25.8049 O   0  0  0  0  0  0  0  0  0  0  0  0
    3.6450   -8.5779  -18.8005 C   0  0  2  0  0  0  0  0  0  0  0  0
    2.3215   -7.8677  -18.9601 C   0  0  1  0  0  0  0  0  0  0  0  0
    1.7355   -8.1453  -20.3287 C   0  0  2  0  0  0  0  0  0  0  0  0
    2.8349   -8.5827  -21.2657 C   0  0  1  0  0  0  0  0  0  0  0  0
    3.4428   -9.8414  -20.7282 C   0  0  1  0  0  0  0  0  0  0  0  0
    4.6797  -10.1500  -21.5335 C   0  0  0  0  0  0  0  0  0  0  0  0
    0.7608   -7.3870  -17.0305 C   0  0  0  0  0  0  0  0  0  0  0  0
   -0.1873   -7.8614  -15.9707 C   0  0  0  0  0  0  0  0  0  0  0  0
    1.3529   -8.2762  -17.9645 N   0  0  0  0  0  0  0  0  0  0  0  0
    4.6582   -7.8485  -19.4221 O   0  0  0  0  0  0  0  0  0  0  0  0
    1.1704   -6.9949  -20.8476 O   0  0  0  0  0  0  0  0  0  0  0  0
    2.2340   -8.9126  -22.4977 O   0  0  0  0  0  0  0  0  0  0  0  0
    3.6475   -9.8437  -19.3723 O   0  0  0  0  0  0  0  0  0  0  0  0
    5.7755   -9.3856  -21.1139 O   0  0  0  0  0  0  0  0  0  0  0  0
    1.0291   -6.1749  -17.0826 O   0  0  0  0  0  0  0  0  0  0  0  0
  1  2  1  0
  1  9  1  0
  1 22  1  1
  2  3  1  0
  2  7  1  6
  3  4  1  0
  3  8  1  6
  5  4  2  0
  5  6  1  0
  9  5  1  0
  6 10  1  0
  6 11  2  0
 13 12  1  0
 12 21  1  6
 12 24  1  0
 13 14  1  0
 13 20  1  1
 14 15  1  0
 14 22  1  6
 15 16  1  0
 15 23  1  6
 16 17  1  6
 24 16  1  0
 17 25  1  0
 18 19  1  0
 18 20  1  0
 18 26  2  0
M  END
$$$$
