
     RDKit          3D

 26 27  0  0  0  0  0  0  0  0999 V2000
    0.4000   -7.2768  -21.1893 C   0  0  1  0  0  0  0  0  0  0  0  0
    0.3369   -5.7677  -21.2417 C   0  0  1  0  0  0  0  0  0  0  0  0
    0.6042   -5.2568  -22.6427 C   0  0  2  0  0  0  0  0  0  0  0  0
   -0.4393   -5.8722  -23.5057 C   0  0  0  0  0  0  0  0  0  0  0  0
   -0.6182   -7.1762  -23.3683 C   0  0  0  0  0  0  0  0  0  0  0  0
   -1.6307   -7.8397  -24.1901 C   0  0  0  0  0  0  0  0  0  0  0  0
   -0.9412   -5.3374  -20.8838 O   0  0  0  0  0  0  0  0  0  0  0  0
    1.8353   -5.7105  -23.1232 O   0  0  0  0  0  0  0  0  0  0  0  0
    0.1751   -7.8327  -22.4446 O   0  0  0  0  0  0  0  0  0  0  0  0
   -1.9545   -9.1768  -24.0383 O   0  0  0  0  0  0  0  0  0  0  0  0
   -2.2426   -7.2004  -25.0702 O   0  0  0  0  0  0  0  0  0  0  0  0
    2.9443   -9.5804  -17.9402 C   0  0  2  0  0  0  0  0  0  0  0  0
    2.0992   -8.4357  -18.4473 C   0  0  1  0  0  0  0  0  0  0  0  0
    1.5622   -8.7479  -19.8286 C   0  0  2  0  0  0  0  0  0  0  0  0
    2.4182   -9.8124  -20.4705 C   0  0  1  0  0  0  0  0  0  0  0  0
    2.3497  -11.0480  -19.6272 C   0  0  1  0  0  0  0  0  0  0  0  0
    3.3754  -12.0274  -20.1397 C   0  0  0  0  0  0  0  0  0  0  0  0
    0.8789   -6.9967  -16.7650 C   0  0  0  0  0  0  0  0  0  0  0  0
   -0.2149   -6.8227  -15.7548 C   0  0  0  0  0  0  0  0  0  0  0  0
    0.9744   -8.1542  -17.5802 N   0  0  0  0  0  0  0  0  0  0  0  0
    4.2232   -9.5130  -18.4921 O   0  0  0  0  0  0  0  0  0  0  0  0
    1.6186   -7.6210  -20.6278 O   0  0  0  0  0  0  0  0  0  0  0  0
    1.8335  -10.1325  -21.7129 O   0  0  0  0  0  0  0  0  0  0  0  0
    2.4226  -10.8230  -18.2765 O   0  0  0  0  0  0  0  0  0  0  0  0
    4.5296  -12.0316  -19.3468 O   0  0  0  0  0  0  0  0  0  0  0  0
    1.7225   -6.0921  -16.8831 O   0  0  0  0  0  0  0  0  0  0  0  0
  1  2  1  0
  1  9  1  0
  1 22  1  6
  2  3  1  0
  2  7  1  6
  3  4  1  0
  3  8  1  6
  5  4  2  0
  5  6  1  0
  9  5  1  0
  6 10  1  0
  6 11  2  0
 13 12  1  0
 12 21  1  6
 12 24  1  0
 13 14  1  0
 13 20  1  1
 14 15  1  0
 14 22  1  6
 15 16  1  0
 15 23  1  6
 16 17  1  6
 24 16  1  0
 17 25  1  0
 18 19  1  0
 18 20  1  0
 18 26  2  0
M  END
$$$$
