
     RDKit          3D

 26 27  0  0  0  0  0  0  0  0999 V2000
    0.3133   -7.1852  -21.2044 C   0  0  1  0  0  0  0  0  0  0  0  0
    0.4499   -5.7638  -21.6993 C   0  0  1  0  0  0  0  0  0  0  0  0
    0.3312   -5.6955  -23.2081 C   0  0  2  0  0  0  0  0  0  0  0  0
   -1.0066   -6.2567  -23.5364 C   0  0  0  0  0  0  0  0  0  0  0  0
   -1.3146   -7.4091  -22.9635 C   0  0  0  0  0  0  0  0  0  0  0  0
   -2.6172   -8.0120  -23.2475 C   0  0  0  0  0  0  0  0  0  0  0  0
   -0.5766   -4.9806  -21.1701 O   0  0  0  0  0  0  0  0  0  0  0  0
    1.2716   -6.5209  -23.8300 O   0  0  0  0  0  0  0  0  0  0  0  0
   -0.3713   -7.9735  -22.1237 O   0  0  0  0  0  0  0  0  0  0  0  0
   -3.0860   -9.1253  -22.5719 O   0  0  0  0  0  0  0  0  0  0  0  0
   -3.3559   -7.5252  -24.1278 O   0  0  0  0  0  0  0  0  0  0  0  0
    3.3338   -9.1175  -18.1483 C   0  0  2  0  0  0  0  0  0  0  0  0
    2.5048   -8.0025  -18.7409 C   0  0  1  0  0  0  0  0  0  0  0  0
    1.6183   -8.5351  -19.8473 C   0  0  2  0  0  0  0  0  0  0  0  0
    2.1841   -9.8368  -20.3606 C   0  0  1  0  0  0  0  0  0  0  0  0
    2.2055  -10.8217  -19.2327 C   0  0  1  0  0  0  0  0  0  0  0  0
    2.9749  -12.0381  -19.6822 C   0  0  0  0  0  0  0  0  0  0  0  0
    2.1379   -6.4441  -16.7846 C   0  0  0  0  0  0  0  0  0  0  0  0
    2.3504   -6.8390  -15.3542 C   0  0  0  0  0  0  0  0  0  0  0  0
    1.6592   -7.3609  -17.7562 N   0  0  0  0  0  0  0  0  0  0  0  0
    4.4390   -9.3756  -18.9588 O   0  0  0  0  0  0  0  0  0  0  0  0
    1.5856   -7.6427  -20.9030 O   0  0  0  0  0  0  0  0  0  0  0  0
    1.2848  -10.3378  -21.3240 O   0  0  0  0  0  0  0  0  0  0  0  0
    2.6283  -10.3085  -18.0335 O   0  0  0  0  0  0  0  0  0  0  0  0
    4.3425  -11.7669  -19.8139 O   0  0  0  0  0  0  0  0  0  0  0  0
    2.3925   -5.2746  -17.1180 O   0  0  0  0  0  0  0  0  0  0  0  0
  1  2  1  0
  1  9  1  0
  1 22  1  6
  2  3  1  0
  2  7  1  1
  3  4  1  0
  3  8  1  6
  5  4  2  0
  5  6  1  0
  9  5  1  0
  6 10  1  0
  6 11  2  0
 13 12  1  0
 12 21  1  6
 12 24  1  0
 13 14  1  0
 13 20  1  1
 14 15  1  0
 14 22  1  6
 15 16  1  0
 15 23  1  6
 16 17  1  6
 24 16  1  0
 17 25  1  0
 18 19  1  0
 18 20  1  0
 18 26  2  0
M  END
$$$$
