
     RDKit          3D

 26 27  0  0  0  0  0  0  0  0999 V2000
    0.2679   -7.3618  -21.3390 C   0  0  1  0  0  0  0  0  0  0  0  0
   -0.6954   -6.3220  -20.8147 C   0  0  1  0  0  0  0  0  0  0  0  0
   -0.7373   -5.1083  -21.7205 C   0  0  2  0  0  0  0  0  0  0  0  0
   -1.1582   -5.6116  -23.0554 C   0  0  0  0  0  0  0  0  0  0  0  0
   -0.5148   -6.6752  -23.5094 C   0  0  0  0  0  0  0  0  0  0  0  0
   -0.8836   -7.2176  -24.8173 C   0  0  0  0  0  0  0  0  0  0  0  0
   -1.9855   -6.8521  -20.7774 O   0  0  0  0  0  0  0  0  0  0  0  0
    0.5346   -4.5545  -21.8878 O   0  0  0  0  0  0  0  0  0  0  0  0
    0.4765   -7.2092  -22.7059 O   0  0  0  0  0  0  0  0  0  0  0  0
   -0.3811   -8.4151  -25.2959 O   0  0  0  0  0  0  0  0  0  0  0  0
   -1.6803   -6.5983  -25.5518 O   0  0  0  0  0  0  0  0  0  0  0  0
    3.4964   -9.0947  -18.2932 C   0  0  2  0  0  0  0  0  0  0  0  0
    2.3123   -8.2004  -18.5759 C   0  0  1  0  0  0  0  0  0  0  0  0
    1.7685   -8.4680  -19.9638 C   0  0  2  0  0  0  0  0  0  0  0  0
    2.8368   -9.1261  -20.8027 C   0  0  1  0  0  0  0  0  0  0  0  0
    3.2075  -10.4280  -20.1621 C   0  0  1  0  0  0  0  0  0  0  0  0
    4.4241  -10.9721  -20.8674 C   0  0  0  0  0  0  0  0  0  0  0  0
    0.8072   -7.3981  -16.7102 C   0  0  0  0  0  0  0  0  0  0  0  0
    0.1339   -7.7445  -15.4164 C   0  0  0  0  0  0  0  0  0  0  0  0
    1.2366   -8.3931  -17.6261 N   0  0  0  0  0  0  0  0  0  0  0  0
    4.6453   -8.5695  -18.8839 O   0  0  0  0  0  0  0  0  0  0  0  0
    1.4219   -7.2784  -20.5774 O   0  0  0  0  0  0  0  0  0  0  0  0
    2.2622   -9.4345  -22.0527 O   0  0  0  0  0  0  0  0  0  0  0  0
    3.3320  -10.3786  -18.7974 O   0  0  0  0  0  0  0  0  0  0  0  0
    5.5334  -10.1319  -20.7103 O   0  0  0  0  0  0  0  0  0  0  0  0
    0.9894   -6.1985  -16.9778 O   0  0  0  0  0  0  0  0  0  0  0  0
  1  2  1  0
  1  9  1  0
  1 22  1  1
  2  3  1  0
  2  7  1  6
  3  4  1  0
  3  8  1  6
  5  4  2  0
  5  6  1  0
  9  5  1  0
  6 10  1  0
  6 11  2  0
 13 12  1  0
 12 21  1  6
 12 24  1  0
 13 14  1  0
 13 20  1  1
 14 15  1  0
 14 22  1  6
 15 16  1  0
 15 23  1  6
 16 17  1  6
 24 16  1  0
 17 25  1  0
 18 19  1  0
 18 20  1  0
 18 26  2  0
M  END
$$$$
