
     RDKit          3D

 26 27  0  0  0  0  0  0  0  0999 V2000
   -0.1296   -6.9035  -21.2351 C   0  0  1  0  0  0  0  0  0  0  0  0
   -1.2738   -6.0633  -20.7165 C   0  0  1  0  0  0  0  0  0  0  0  0
   -1.5168   -4.8607  -21.6053 C   0  0  2  0  0  0  0  0  0  0  0  0
   -1.8155   -5.4072  -22.9561 C   0  0  0  0  0  0  0  0  0  0  0  0
   -0.9830   -6.3295  -23.4116 C   0  0  0  0  0  0  0  0  0  0  0  0
   -1.2239   -6.9056  -24.7348 C   0  0  0  0  0  0  0  0  0  0  0  0
   -2.4479   -6.8172  -20.7145 O   0  0  0  0  0  0  0  0  0  0  0  0
   -0.3624   -4.0845  -21.7374 O   0  0  0  0  0  0  0  0  0  0  0  0
    0.0734   -6.6912  -22.5949 O   0  0  0  0  0  0  0  0  0  0  0  0
   -0.3128   -7.7370  -25.3626 O   0  0  0  0  0  0  0  0  0  0  0  0
   -2.2834   -6.6551  -25.3451 O   0  0  0  0  0  0  0  0  0  0  0  0
    3.4038   -8.1172  -18.2778 C   0  0  2  0  0  0  0  0  0  0  0  0
    2.0505   -7.4876  -18.5098 C   0  0  1  0  0  0  0  0  0  0  0  0
    1.5790   -7.7566  -19.9237 C   0  0  2  0  0  0  0  0  0  0  0  0
    2.7663   -8.0920  -20.7930 C   0  0  1  0  0  0  0  0  0  0  0  0
    3.4173   -9.3266  -20.2503 C   0  0  1  0  0  0  0  0  0  0  0  0
    4.7240   -9.5293  -20.9749 C   0  0  0  0  0  0  0  0  0  0  0  0
    0.4026   -7.1902  -16.6161 C   0  0  0  0  0  0  0  0  0  0  0  0
   -0.5429   -7.7727  -15.6092 C   0  0  0  0  0  0  0  0  0  0  0  0
    1.0450   -7.9895  -17.5969 N   0  0  0  0  0  0  0  0  0  0  0  0
    4.4070   -7.3048  -18.8054 O   0  0  0  0  0  0  0  0  0  0  0  0
    0.9764   -6.6279  -20.4479 O   0  0  0  0  0  0  0  0  0  0  0  0
    2.2739   -8.4185  -22.0732 O   0  0  0  0  0  0  0  0  0  0  0  0
    3.5285   -9.3608  -18.8839 O   0  0  0  0  0  0  0  0  0  0  0  0
    5.3514   -8.3108  -21.2629 O   0  0  0  0  0  0  0  0  0  0  0  0
    0.6226   -5.9679  -16.5809 O   0  0  0  0  0  0  0  0  0  0  0  0
  1  2  1  0
  1  9  1  0
  1 22  1  1
  2  3  1  0
  2  7  1  6
  3  4  1  0
  3  8  1  6
  5  4  2  0
  5  6  1  0
  9  5  1  0
  6 10  1  0
  6 11  2  0
 13 12  1  0
 12 21  1  6
 12 24  1  0
 13 14  1  0
 13 20  1  1
 14 15  1  0
 14 22  1  6
 15 16  1  0
 15 23  1  6
 16 17  1  6
 24 16  1  0
 17 25  1  0
 18 19  1  0
 18 20  1  0
 18 26  2  0
M  END
$$$$
