
     RDKit          3D

 26 27  0  0  0  0  0  0  0  0999 V2000
    0.0362   -7.0896  -21.5061 C   0  0  1  0  0  0  0  0  0  0  0  0
   -1.0738   -6.1875  -21.0182 C   0  0  1  0  0  0  0  0  0  0  0  0
   -1.2539   -4.9956  -21.9359 C   0  0  2  0  0  0  0  0  0  0  0  0
   -1.5641   -5.5584  -23.2773 C   0  0  0  0  0  0  0  0  0  0  0  0
   -0.7697   -6.5271  -23.7035 C   0  0  0  0  0  0  0  0  0  0  0  0
   -1.0238   -7.1215  -25.0162 C   0  0  0  0  0  0  0  0  0  0  0  0
   -2.2807   -6.8878  -21.0119 O   0  0  0  0  0  0  0  0  0  0  0  0
   -0.0646   -4.2751  -22.0729 O   0  0  0  0  0  0  0  0  0  0  0  0
    0.2615   -6.9174  -22.8680 O   0  0  0  0  0  0  0  0  0  0  0  0
   -2.1589   -6.8377  -25.7555 O   0  0  0  0  0  0  0  0  0  0  0  0
   -0.2028   -7.9188  -25.5139 O   0  0  0  0  0  0  0  0  0  0  0  0
    3.5589   -8.4176  -18.5855 C   0  0  2  0  0  0  0  0  0  0  0  0
    2.2112   -7.7700  -18.8002 C   0  0  1  0  0  0  0  0  0  0  0  0
    1.7384   -7.9945  -20.2213 C   0  0  2  0  0  0  0  0  0  0  0  0
    2.9234   -8.3154  -21.0993 C   0  0  1  0  0  0  0  0  0  0  0  0
    3.5633   -9.5705  -20.5915 C   0  0  1  0  0  0  0  0  0  0  0  0
    4.8688   -9.7638  -21.3211 C   0  0  0  0  0  0  0  0  0  0  0  0
    0.5909   -7.5223  -16.8758 C   0  0  0  0  0  0  0  0  0  0  0  0
   -0.4371   -8.1033  -15.9524 C   0  0  0  0  0  0  0  0  0  0  0  0
    1.2008   -8.2888  -17.9024 N   0  0  0  0  0  0  0  0  0  0  0  0
    4.5695   -7.5992  -19.0894 O   0  0  0  0  0  0  0  0  0  0  0  0
    1.1460   -6.8462  -20.7136 O   0  0  0  0  0  0  0  0  0  0  0  0
    2.4291   -8.6012  -22.3884 O   0  0  0  0  0  0  0  0  0  0  0  0
    3.6733   -9.6444  -19.2267 O   0  0  0  0  0  0  0  0  0  0  0  0
    5.7333  -10.6139  -20.6202 O   0  0  0  0  0  0  0  0  0  0  0  0
    0.9109   -6.3308  -16.7276 O   0  0  0  0  0  0  0  0  0  0  0  0
  1  2  1  0
  1  9  1  0
  1 22  1  1
  2  3  1  0
  2  7  1  6
  3  4  1  0
  3  8  1  6
  5  4  2  0
  5  6  1  0
  9  5  1  0
  6 10  1  0
  6 11  2  0
 13 12  1  0
 12 21  1  6
 12 24  1  0
 13 14  1  0
 13 20  1  1
 14 15  1  0
 14 22  1  6
 15 16  1  0
 15 23  1  6
 16 17  1  6
 24 16  1  0
 17 25  1  0
 18 19  1  0
 18 20  1  0
 18 26  2  0
M  END
$$$$
