
     RDKit          3D

 26 27  0  0  0  0  0  0  0  0999 V2000
   -0.1409   -7.0711  -21.3890 C   0  0  1  0  0  0  0  0  0  0  0  0
   -1.3124   -6.2777  -20.8579 C   0  0  1  0  0  0  0  0  0  0  0  0
   -1.6005   -5.0746  -21.7325 C   0  0  2  0  0  0  0  0  0  0  0  0
   -1.8839   -5.6163  -23.0884 C   0  0  0  0  0  0  0  0  0  0  0  0
   -1.0208   -6.5034  -23.5566 C   0  0  0  0  0  0  0  0  0  0  0  0
   -1.2454   -7.0729  -24.8855 C   0  0  0  0  0  0  0  0  0  0  0  0
   -2.4592   -7.0726  -20.8612 O   0  0  0  0  0  0  0  0  0  0  0  0
   -0.4747   -4.2567  -21.8589 O   0  0  0  0  0  0  0  0  0  0  0  0
    0.0502   -6.8367  -22.7469 O   0  0  0  0  0  0  0  0  0  0  0  0
   -0.2876   -7.8219  -25.5468 O   0  0  0  0  0  0  0  0  0  0  0  0
   -2.3333   -6.8929  -25.4700 O   0  0  0  0  0  0  0  0  0  0  0  0
    3.4282   -8.1946  -18.4405 C   0  0  2  0  0  0  0  0  0  0  0  0
    2.0507   -7.6195  -18.6721 C   0  0  1  0  0  0  0  0  0  0  0  0
    1.6037   -7.8779  -20.0959 C   0  0  2  0  0  0  0  0  0  0  0  0
    2.8120   -8.1427  -20.9607 C   0  0  1  0  0  0  0  0  0  0  0  0
    3.5115   -9.3593  -20.4381 C   0  0  1  0  0  0  0  0  0  0  0  0
    4.8320   -9.4894  -21.1543 C   0  0  0  0  0  0  0  0  0  0  0  0
    0.5202   -7.4932  -16.6643 C   0  0  0  0  0  0  0  0  0  0  0  0
    0.6630   -8.0081  -15.2637 C   0  0  0  0  0  0  0  0  0  0  0  0
    1.0602   -8.1841  -17.7798 N   0  0  0  0  0  0  0  0  0  0  0  0
    4.3996   -7.3282  -18.9411 O   0  0  0  0  0  0  0  0  0  0  0  0
    0.9571   -6.7653  -20.6018 O   0  0  0  0  0  0  0  0  0  0  0  0
    2.3455   -8.4624  -22.2522 O   0  0  0  0  0  0  0  0  0  0  0  0
    3.6122   -9.4182  -19.0717 O   0  0  0  0  0  0  0  0  0  0  0  0
    5.4095   -8.2390  -21.4078 O   0  0  0  0  0  0  0  0  0  0  0  0
   -0.0924   -6.4268  -16.8413 O   0  0  0  0  0  0  0  0  0  0  0  0
  1  2  1  0
  1  9  1  0
  1 22  1  1
  2  3  1  0
  2  7  1  6
  3  4  1  0
  3  8  1  6
  5  4  2  0
  5  6  1  0
  9  5  1  0
  6 10  1  0
  6 11  2  0
 13 12  1  0
 12 21  1  6
 12 24  1  0
 13 14  1  0
 13 20  1  1
 14 15  1  0
 14 22  1  6
 15 16  1  0
 15 23  1  6
 16 17  1  6
 24 16  1  0
 17 25  1  0
 18 19  1  0
 18 20  1  0
 18 26  2  0
M  END
$$$$
