
     RDKit          3D

 26 27  0  0  0  0  0  0  0  0999 V2000
   -0.3001   -7.1805  -21.4616 C   0  0  1  0  0  0  0  0  0  0  0  0
   -1.4936   -6.4007  -20.9602 C   0  0  1  0  0  0  0  0  0  0  0  0
   -1.7808   -5.2077  -21.8489 C   0  0  2  0  0  0  0  0  0  0  0  0
   -2.0283   -5.7625  -23.2066 C   0  0  0  0  0  0  0  0  0  0  0  0
   -1.1431   -6.6400  -23.6507 C   0  0  0  0  0  0  0  0  0  0  0  0
   -1.3320   -7.2215  -24.9800 C   0  0  0  0  0  0  0  0  0  0  0  0
   -2.6285   -7.2121  -20.9815 O   0  0  0  0  0  0  0  0  0  0  0  0
   -0.6645   -4.3744  -21.9578 O   0  0  0  0  0  0  0  0  0  0  0  0
   -0.0844   -6.9523  -22.8169 O   0  0  0  0  0  0  0  0  0  0  0  0
   -0.3814   -8.0267  -25.5830 O   0  0  0  0  0  0  0  0  0  0  0  0
   -2.3811   -7.0003  -25.6187 O   0  0  0  0  0  0  0  0  0  0  0  0
    3.2724   -8.2410  -18.4935 C   0  0  2  0  0  0  0  0  0  0  0  0
    1.8792   -7.7068  -18.7289 C   0  0  1  0  0  0  0  0  0  0  0  0
    1.4546   -7.9537  -20.1616 C   0  0  2  0  0  0  0  0  0  0  0  0
    2.6792   -8.1632  -21.0185 C   0  0  1  0  0  0  0  0  0  0  0  0
    3.4130   -9.3658  -20.5106 C   0  0  1  0  0  0  0  0  0  0  0  0
    4.7439   -9.4399  -21.2155 C   0  0  0  0  0  0  0  0  0  0  0  0
    0.1798   -7.6109  -16.8600 C   0  0  0  0  0  0  0  0  0  0  0  0
   -0.7544   -8.2999  -15.9115 C   0  0  0  0  0  0  0  0  0  0  0  0
    0.8990   -8.3195  -17.8571 N   0  0  0  0  0  0  0  0  0  0  0  0
    4.2197   -7.3345  -18.9686 O   0  0  0  0  0  0  0  0  0  0  0  0
    0.7769   -6.8536  -20.6541 O   0  0  0  0  0  0  0  0  0  0  0  0
    2.2359   -8.4744  -22.3202 O   0  0  0  0  0  0  0  0  0  0  0  0
    3.5023   -9.4463  -19.1446 O   0  0  0  0  0  0  0  0  0  0  0  0
    5.2611   -8.1660  -21.4815 O   0  0  0  0  0  0  0  0  0  0  0  0
    0.3206   -6.3804  -16.7601 O   0  0  0  0  0  0  0  0  0  0  0  0
  1  2  1  0
  1  9  1  0
  1 22  1  1
  2  3  1  0
  2  7  1  6
  3  4  1  0
  3  8  1  6
  5  4  2  0
  5  6  1  0
  9  5  1  0
  6 10  1  0
  6 11  2  0
 13 12  1  0
 12 21  1  6
 12 24  1  0
 13 14  1  0
 13 20  1  1
 14 15  1  0
 14 22  1  6
 15 16  1  0
 15 23  1  6
 16 17  1  6
 24 16  1  0
 17 25  1  0
 18 19  1  0
 18 20  1  0
 18 26  2  0
M  END
$$$$
