
     RDKit          3D

 26 27  0  0  0  0  0  0  0  0999 V2000
    0.2838   -7.4285  -21.3652 C   0  0  1  0  0  0  0  0  0  0  0  0
   -0.9110   -6.7360  -20.7512 C   0  0  1  0  0  0  0  0  0  0  0  0
   -1.1894   -5.4138  -21.4365 C   0  0  2  0  0  0  0  0  0  0  0  0
   -1.4295   -5.7403  -22.8676 C   0  0  0  0  0  0  0  0  0  0  0  0
   -0.5436   -6.5375  -23.4428 C   0  0  0  0  0  0  0  0  0  0  0  0
   -0.7254   -6.8952  -24.8498 C   0  0  0  0  0  0  0  0  0  0  0  0
   -2.0478   -7.5292  -20.9106 O   0  0  0  0  0  0  0  0  0  0  0  0
   -0.0703   -4.5778  -21.4023 O   0  0  0  0  0  0  0  0  0  0  0  0
    0.5089   -6.9845  -22.6642 O   0  0  0  0  0  0  0  0  0  0  0  0
    0.2108   -7.6272  -25.5595 O   0  0  0  0  0  0  0  0  0  0  0  0
   -1.7546   -6.5403  -25.4600 O   0  0  0  0  0  0  0  0  0  0  0  0
    3.6722   -8.9329  -18.3658 C   0  0  2  0  0  0  0  0  0  0  0  0
    2.4134   -8.1237  -18.5720 C   0  0  1  0  0  0  0  0  0  0  0  0
    1.8194   -8.4104  -19.9353 C   0  0  2  0  0  0  0  0  0  0  0  0
    2.8876   -8.9764  -20.8389 C   0  0  1  0  0  0  0  0  0  0  0  0
    3.3842  -10.2567  -20.2415 C   0  0  1  0  0  0  0  0  0  0  0  0
    4.5988  -10.7002  -21.0172 C   0  0  0  0  0  0  0  0  0  0  0  0
    0.8208   -7.4192  -16.7397 C   0  0  0  0  0  0  0  0  0  0  0  0
    1.3234   -6.0073  -16.7077 C   0  0  0  0  0  0  0  0  0  0  0  0
    1.4051   -8.4082  -17.5727 N   0  0  0  0  0  0  0  0  0  0  0  0
    4.7480   -8.3166  -19.0042 O   0  0  0  0  0  0  0  0  0  0  0  0
    1.3563   -7.2406  -20.5090 O   0  0  0  0  0  0  0  0  0  0  0  0
    2.2730   -9.3080  -22.0637 O   0  0  0  0  0  0  0  0  0  0  0  0
    3.5753  -10.2180  -18.8842 O   0  0  0  0  0  0  0  0  0  0  0  0
    5.7423   -9.9829  -20.6442 O   0  0  0  0  0  0  0  0  0  0  0  0
   -0.1380   -7.7209  -16.0094 O   0  0  0  0  0  0  0  0  0  0  0  0
  1  2  1  0
  1  9  1  0
  1 22  1  1
  2  3  1  0
  2  7  1  6
  3  4  1  0
  3  8  1  6
  5  4  2  0
  5  6  1  0
  9  5  1  0
  6 10  1  0
  6 11  2  0
 13 12  1  0
 12 21  1  6
 12 24  1  0
 13 14  1  0
 13 20  1  1
 14 15  1  0
 14 22  1  6
 15 16  1  0
 15 23  1  6
 16 17  1  6
 24 16  1  0
 17 25  1  0
 18 19  1  0
 18 20  1  0
 18 26  2  0
M  END
$$$$
