
     RDKit          3D

 26 27  0  0  0  0  0  0  0  0999 V2000
    0.3541   -7.2485  -21.5512 C   0  0  1  0  0  0  0  0  0  0  0  0
   -0.7158   -6.3462  -20.9811 C   0  0  1  0  0  0  0  0  0  0  0  0
   -0.8392   -5.0677  -21.7845 C   0  0  2  0  0  0  0  0  0  0  0  0
   -1.1701   -5.4898  -23.1719 C   0  0  0  0  0  0  0  0  0  0  0  0
   -0.4187   -6.4498  -23.6866 C   0  0  0  0  0  0  0  0  0  0  0  0
   -0.6952   -6.9085  -25.0482 C   0  0  0  0  0  0  0  0  0  0  0  0
   -1.9530   -6.9889  -21.0382 O   0  0  0  0  0  0  0  0  0  0  0  0
    0.3818   -4.3920  -21.8556 O   0  0  0  0  0  0  0  0  0  0  0  0
    0.5911   -6.9616  -22.8917 O   0  0  0  0  0  0  0  0  0  0  0  0
    0.2413   -7.5837  -25.8115 O   0  0  0  0  0  0  0  0  0  0  0  0
   -1.8100   -6.6968  -25.5678 O   0  0  0  0  0  0  0  0  0  0  0  0
    3.6283   -8.9245  -18.5170 C   0  0  2  0  0  0  0  0  0  0  0  0
    2.4263   -8.0442  -18.7658 C   0  0  1  0  0  0  0  0  0  0  0  0
    1.8485   -8.3160  -20.1391 C   0  0  2  0  0  0  0  0  0  0  0  0
    2.9016   -8.9596  -21.0078 C   0  0  1  0  0  0  0  0  0  0  0  0
    3.3052  -10.2580  -20.3801 C   0  0  1  0  0  0  0  0  0  0  0  0
    4.5088  -10.7861  -21.1191 C   0  0  0  0  0  0  0  0  0  0  0  0
    0.8844   -7.2307  -16.9353 C   0  0  0  0  0  0  0  0  0  0  0  0
   -0.1736   -7.4958  -15.9069 C   0  0  0  0  0  0  0  0  0  0  0  0
    1.3790   -8.2515  -17.7878 N   0  0  0  0  0  0  0  0  0  0  0  0
    4.7544   -8.3844  -19.1374 O   0  0  0  0  0  0  0  0  0  0  0  0
    1.4711   -7.1296  -20.7407 O   0  0  0  0  0  0  0  0  0  0  0  0
    2.2973   -9.2728  -22.2426 O   0  0  0  0  0  0  0  0  0  0  0  0
    3.4659  -10.2094  -19.0192 O   0  0  0  0  0  0  0  0  0  0  0  0
    5.5855   -9.8925  -21.0617 O   0  0  0  0  0  0  0  0  0  0  0  0
    1.3345   -6.0769  -17.0349 O   0  0  0  0  0  0  0  0  0  0  0  0
  1  2  1  0
  1  9  1  0
  1 22  1  1
  2  3  1  0
  2  7  1  6
  3  4  1  0
  3  8  1  6
  5  4  2  0
  5  6  1  0
  9  5  1  0
  6 10  1  0
  6 11  2  0
 13 12  1  0
 12 21  1  6
 12 24  1  0
 13 14  1  0
 13 20  1  1
 14 15  1  0
 14 22  1  6
 15 16  1  0
 15 23  1  6
 16 17  1  6
 24 16  1  0
 17 25  1  0
 18 19  1  0
 18 20  1  0
 18 26  2  0
M  END
$$$$
