
     RDKit          3D

 26 27  0  0  0  0  0  0  0  0999 V2000
    0.1156   -7.0884  -21.1994 C   0  0  1  0  0  0  0  0  0  0  0  0
   -1.0328   -6.2444  -20.6966 C   0  0  1  0  0  0  0  0  0  0  0  0
   -1.2610   -5.0422  -21.5900 C   0  0  2  0  0  0  0  0  0  0  0  0
   -1.5439   -5.5897  -22.9437 C   0  0  0  0  0  0  0  0  0  0  0  0
   -0.7082   -6.5148  -23.3874 C   0  0  0  0  0  0  0  0  0  0  0  0
   -0.9338   -7.0919  -24.7128 C   0  0  0  0  0  0  0  0  0  0  0  0
   -2.2090   -6.9949  -20.7087 O   0  0  0  0  0  0  0  0  0  0  0  0
   -0.1029   -4.2694  -21.7081 O   0  0  0  0  0  0  0  0  0  0  0  0
    0.3365   -6.8785  -22.5567 O   0  0  0  0  0  0  0  0  0  0  0  0
   -0.0423   -7.9696  -25.3050 O   0  0  0  0  0  0  0  0  0  0  0  0
   -1.9613   -6.7997  -25.3582 O   0  0  0  0  0  0  0  0  0  0  0  0
    3.5983   -8.3178  -18.1922 C   0  0  2  0  0  0  0  0  0  0  0  0
    2.2401   -7.7095  -18.4511 C   0  0  1  0  0  0  0  0  0  0  0  0
    1.8212   -7.9461  -19.8871 C   0  0  2  0  0  0  0  0  0  0  0  0
    3.0433   -8.2313  -20.7256 C   0  0  1  0  0  0  0  0  0  0  0  0
    3.7025   -9.4678  -20.1973 C   0  0  1  0  0  0  0  0  0  0  0  0
    5.0364   -9.6221  -20.8834 C   0  0  0  0  0  0  0  0  0  0  0  0
    0.5626   -7.5160  -16.5700 C   0  0  0  0  0  0  0  0  0  0  0  0
   -0.3598   -8.1621  -15.5806 C   0  0  0  0  0  0  0  0  0  0  0  0
    1.2162   -8.2587  -17.5873 N   0  0  0  0  0  0  0  0  0  0  0  0
    4.6007   -7.4698  -18.6623 O   0  0  0  0  0  0  0  0  0  0  0  0
    1.2121   -6.8149  -20.3984 O   0  0  0  0  0  0  0  0  0  0  0  0
    2.6004   -8.5297  -22.0304 O   0  0  0  0  0  0  0  0  0  0  0  0
    3.7695   -9.5401  -18.8295 O   0  0  0  0  0  0  0  0  0  0  0  0
    5.1179  -10.8267  -21.5930 O   0  0  0  0  0  0  0  0  0  0  0  0
    0.7529   -6.2910  -16.4867 O   0  0  0  0  0  0  0  0  0  0  0  0
  1  2  1  0
  1  9  1  0
  1 22  1  1
  2  3  1  0
  2  7  1  6
  3  4  1  0
  3  8  1  6
  5  4  2  0
  5  6  1  0
  9  5  1  0
  6 10  1  0
  6 11  2  0
 13 12  1  0
 12 21  1  6
 12 24  1  0
 13 14  1  0
 13 20  1  1
 14 15  1  0
 14 22  1  6
 15 16  1  0
 15 23  1  6
 16 17  1  6
 24 16  1  0
 17 25  1  0
 18 19  1  0
 18 20  1  0
 18 26  2  0
M  END
$$$$
