
     RDKit          3D

 26 27  0  0  0  0  0  0  0  0999 V2000
   -0.0785   -7.3022  -21.0730 C   0  0  1  0  0  0  0  0  0  0  0  0
   -0.5704   -5.8754  -20.9922 C   0  0  1  0  0  0  0  0  0  0  0  0
   -0.6114   -5.2319  -22.3632 C   0  0  2  0  0  0  0  0  0  0  0  0
   -1.5255   -6.0741  -23.1803 C   0  0  0  0  0  0  0  0  0  0  0  0
   -1.3129   -7.3795  -23.1382 C   0  0  0  0  0  0  0  0  0  0  0  0
   -2.1794   -8.2609  -23.9212 C   0  0  0  0  0  0  0  0  0  0  0  0
   -1.8716   -5.8542  -20.4888 O   0  0  0  0  0  0  0  0  0  0  0  0
    0.6383   -5.2824  -22.9861 O   0  0  0  0  0  0  0  0  0  0  0  0
   -0.2714   -7.8286  -22.3461 O   0  0  0  0  0  0  0  0  0  0  0  0
   -2.0564   -9.6393  -23.8981 O   0  0  0  0  0  0  0  0  0  0  0  0
   -3.0731   -7.7795  -24.6472 O   0  0  0  0  0  0  0  0  0  0  0  0
    3.4291   -8.9975  -18.3747 C   0  0  2  0  0  0  0  0  0  0  0  0
    2.2569   -8.0846  -18.6472 C   0  0  1  0  0  0  0  0  0  0  0  0
    1.5954   -8.4528  -19.9589 C   0  0  2  0  0  0  0  0  0  0  0  0
    2.5706   -9.2260  -20.8127 C   0  0  1  0  0  0  0  0  0  0  0  0
    2.9474  -10.4795  -20.0850 C   0  0  1  0  0  0  0  0  0  0  0  0
    4.0848  -11.1335  -20.8281 C   0  0  0  0  0  0  0  0  0  0  0  0
    1.2149   -7.2632  -16.4956 C   0  0  0  0  0  0  0  0  0  0  0  0
    0.7468   -7.7045  -15.1416 C   0  0  0  0  0  0  0  0  0  0  0  0
    1.2546   -8.1478  -17.6043 N   0  0  0  0  0  0  0  0  0  0  0  0
    4.5442   -8.5743  -19.0974 O   0  0  0  0  0  0  0  0  0  0  0  0
    1.2410   -7.3096  -20.6514 O   0  0  0  0  0  0  0  0  0  0  0  0
    1.8880   -9.6212  -21.9814 O   0  0  0  0  0  0  0  0  0  0  0  0
    3.1820  -10.3135  -18.7442 O   0  0  0  0  0  0  0  0  0  0  0  0
    5.1626  -11.4175  -19.9801 O   0  0  0  0  0  0  0  0  0  0  0  0
    1.5772   -6.0833  -16.6391 O   0  0  0  0  0  0  0  0  0  0  0  0
  1  2  1  0
  1  9  1  0
  1 22  1  6
  2  3  1  0
  2  7  1  6
  3  4  1  0
  3  8  1  6
  5  4  2  0
  5  6  1  0
  9  5  1  0
  6 10  1  0
  6 11  2  0
 13 12  1  0
 12 21  1  6
 12 24  1  0
 13 14  1  0
 13 20  1  1
 14 15  1  0
 14 22  1  6
 15 16  1  0
 15 23  1  6
 16 17  1  6
 24 16  1  0
 17 25  1  0
 18 19  1  0
 18 20  1  0
 18 26  2  0
M  END
$$$$
