
     RDKit          3D

 26 27  0  0  0  0  0  0  0  0999 V2000
    0.2460   -7.2123  -21.5624 C   0  0  1  0  0  0  0  0  0  0  0  0
   -0.8586   -6.3802  -20.9529 C   0  0  1  0  0  0  0  0  0  0  0  0
   -1.0816   -5.1051  -21.7400 C   0  0  2  0  0  0  0  0  0  0  0  0
   -1.4273   -5.5352  -23.1213 C   0  0  0  0  0  0  0  0  0  0  0  0
   -0.6355   -6.4444  -23.6667 C   0  0  0  0  0  0  0  0  0  0  0  0
   -0.9239   -6.9079  -25.0242 C   0  0  0  0  0  0  0  0  0  0  0  0
   -2.0564   -7.0954  -20.9806 O   0  0  0  0  0  0  0  0  0  0  0  0
    0.0943   -4.3569  -21.8397 O   0  0  0  0  0  0  0  0  0  0  0  0
    0.4261   -6.9011  -22.9063 O   0  0  0  0  0  0  0  0  0  0  0  0
   -0.0491   -7.7062  -25.7406 O   0  0  0  0  0  0  0  0  0  0  0  0
   -1.9924   -6.5868  -25.5835 O   0  0  0  0  0  0  0  0  0  0  0  0
    3.6616   -8.6993  -18.5866 C   0  0  2  0  0  0  0  0  0  0  0  0
    2.4121   -7.8831  -18.8197 C   0  0  1  0  0  0  0  0  0  0  0  0
    1.8251   -8.1943  -20.1807 C   0  0  2  0  0  0  0  0  0  0  0  0
    2.8944   -8.7899  -21.0638 C   0  0  1  0  0  0  0  0  0  0  0  0
    3.3746  -10.0613  -20.4349 C   0  0  1  0  0  0  0  0  0  0  0  0
    4.5905  -10.5330  -21.1917 C   0  0  0  0  0  0  0  0  0  0  0  0
    0.8855   -7.1425  -16.9460 C   0  0  0  0  0  0  0  0  0  0  0  0
   -0.1525   -7.4507  -15.9093 C   0  0  0  0  0  0  0  0  0  0  0  0
    1.3940   -8.1363  -17.8219 N   0  0  0  0  0  0  0  0  0  0  0  0
    4.7478   -8.1071  -19.2304 O   0  0  0  0  0  0  0  0  0  0  0  0
    1.3772   -7.0331  -20.7833 O   0  0  0  0  0  0  0  0  0  0  0  0
    2.2854   -9.1426  -22.2855 O   0  0  0  0  0  0  0  0  0  0  0  0
    3.5563   -9.9945  -19.0773 O   0  0  0  0  0  0  0  0  0  0  0  0
    5.6722  -10.7749  -20.3357 O   0  0  0  0  0  0  0  0  0  0  0  0
    1.3061   -5.9764  -17.0313 O   0  0  0  0  0  0  0  0  0  0  0  0
  1  2  1  0
  1  9  1  0
  1 22  1  1
  2  3  1  0
  2  7  1  6
  3  4  1  0
  3  8  1  6
  5  4  2  0
  5  6  1  0
  9  5  1  0
  6 10  1  0
  6 11  2  0
 13 12  1  0
 12 21  1  6
 12 24  1  0
 13 14  1  0
 13 20  1  1
 14 15  1  0
 14 22  1  6
 15 16  1  0
 15 23  1  6
 16 17  1  6
 24 16  1  0
 17 25  1  0
 18 19  1  0
 18 20  1  0
 18 26  2  0
M  END
$$$$
