
     RDKit          3D

 22 22  0  0  0  0  0  0  0  0999 V2000
   28.3263  228.2551   36.3682 O   0  0  0  0  0  0  0  0  0  0  0  0
   27.2692  227.6017   35.7291 C   0  0  0  0  0  0  0  0  0  0  0  0
   26.9329  228.2369   34.4319 C   0  0  0  0  0  0  0  0  0  0  0  0
   27.4005  227.8025   33.2765 C   0  0  0  0  0  0  0  0  0  0  0  0
   26.0135  229.4195   34.4727 C   0  0  0  0  0  0  0  0  0  0  0  0
   26.7357  230.7026   34.6661 C   0  0  0  0  0  0  0  0  0  0  0  0
   27.0094  231.2123   35.9199 C   0  0  0  0  0  0  0  0  0  0  0  0
   27.6803  232.4041   36.1016 C   0  0  0  0  0  0  0  0  0  0  0  0
   28.1156  233.1538   35.0305 C   0  0  0  0  0  0  0  0  0  0  0  0
   27.8482  232.6553   33.7739 C   0  0  0  0  0  0  0  0  0  0  0  0
   27.1769  231.4628   33.5961 C   0  0  0  0  0  0  0  0  0  0  0  0
   28.8420  234.4445   35.2318 C   0  0  0  0  0  0  0  0  0  0  0  0
   28.0132  226.4814   33.0159 C   0  0  0  0  0  0  0  0  0  0  0  0
   29.3590  226.7039   32.7328 O   0  0  0  0  0  0  0  0  0  0  0  0
   30.2963  225.3298   32.8849 P   0  0  1  0  0  5  0  0  0  0  0  0
   29.7534  224.1928   31.7539 O   0  0  0  0  0  0  0  0  0  0  0  0
   31.7265  225.6758   32.5072 O   0  0  0  0  0  0  0  0  0  0  0  0
   30.3114  224.7150   34.4472 O   0  0  0  0  0  0  0  0  0  0  0  0
   29.9937  224.8599   30.2169 P   0  0  2  0  0  5  0  0  0  0  0  0
   29.6025  223.7824   28.9906 O   0  0  0  0  0  0  0  0  0  0  0  0
   31.4087  225.3564   30.0449 O   0  0  0  0  0  0  0  0  0  0  0  0
   28.9604  226.2072   30.0471 O   0  0  0  0  0  0  0  0  0  0  0  0
  1  2  1  0
  2  3  1  0
  3  4  2  0
  3  5  1  0
  4 13  1  0
  5  6  1  0
  6  7  2  0
  6 11  1  0
  7  8  1  0
  8  9  2  0
  9 10  1  0
  9 12  1  0
 10 11  2  0
 13 14  1  0
 14 15  1  0
 15 16  1  0
 15 17  2  0
 15 18  1  1
 16 19  1  0
 19 20  1  6
 19 21  2  0
 19 22  1  0
M  END
$$$$
