
     RDKit          3D

 22 22  0  0  0  0  0  0  0  0999 V2000
   28.3353  228.4796   36.8524 O   0  0  0  0  0  0  0  0  0  0  0  0
   28.5827  227.8820   35.6136 C   0  0  0  0  0  0  0  0  0  0  0  0
   28.3010  228.8077   34.4897 C   0  0  0  0  0  0  0  0  0  0  0  0
   28.7323  228.5972   33.2600 C   0  0  0  0  0  0  0  0  0  0  0  0
   27.4820  230.0236   34.8000 C   0  0  0  0  0  0  0  0  0  0  0  0
   26.1111  229.9531   34.2335 C   0  0  0  0  0  0  0  0  0  0  0  0
   25.8784  229.6883   32.8984 C   0  0  0  0  0  0  0  0  0  0  0  0
   24.6055  229.6224   32.3702 C   0  0  0  0  0  0  0  0  0  0  0  0
   23.4907  229.8193   33.1560 C   0  0  0  0  0  0  0  0  0  0  0  0
   23.7104  230.0844   34.4904 C   0  0  0  0  0  0  0  0  0  0  0  0
   24.9850  230.1496   35.0151 C   0  0  0  0  0  0  0  0  0  0  0  0
   22.1135  229.7470   32.5797 C   0  0  0  0  0  0  0  0  0  0  0  0
   28.9635  227.2828   32.6216 C   0  0  0  0  0  0  0  0  0  0  0  0
   29.7951  226.5566   33.4713 O   0  0  0  0  0  0  0  0  0  0  0  0
   30.3984  225.1672   32.7674 P   0  0  1  0  0  5  0  0  0  0  0  0
   29.1083  224.3327   32.0562 O   0  0  0  0  0  0  0  0  0  0  0  0
   31.3378  225.5644   31.6415 O   0  0  0  0  0  0  0  0  0  0  0  0
   31.2607  224.2078   33.8422 O   0  0  0  0  0  0  0  0  0  0  0  0
   29.2856  224.4705   30.3785 P   0  0  2  0  0  5  0  0  0  0  0  0
   30.6261  223.6336   29.8125 O   0  0  0  0  0  0  0  0  0  0  0  0
   29.3505  225.9152   29.9464 O   0  0  0  0  0  0  0  0  0  0  0  0
   27.9143  223.7805   29.6336 O   0  0  0  0  0  0  0  0  0  0  0  0
  1  2  1  0
  2  3  1  0
  3  4  2  0
  3  5  1  0
  4 13  1  0
  5  6  1  0
  6  7  2  0
  6 11  1  0
  7  8  1  0
  8  9  2  0
  9 10  1  0
  9 12  1  0
 10 11  2  0
 13 14  1  0
 14 15  1  0
 15 16  1  0
 15 17  2  0
 15 18  1  1
 16 19  1  0
 19 20  1  6
 19 21  2  0
 19 22  1  0
M  END
$$$$
