
     RDKit          3D

 22 22  0  0  0  0  0  0  0  0999 V2000
   26.6457  228.8936   29.8295 O   0  0  0  0  0  0  0  0  0  0  0  0
   27.2015  228.6575   31.0898 C   0  0  0  0  0  0  0  0  0  0  0  0
   26.2393  227.9897   31.9995 C   0  0  0  0  0  0  0  0  0  0  0  0
   26.1631  226.6781   32.1276 C   0  0  0  0  0  0  0  0  0  0  0  0
   25.3321  228.8758   32.7980 C   0  0  0  0  0  0  0  0  0  0  0  0
   25.8684  229.1794   34.1491 C   0  0  0  0  0  0  0  0  0  0  0  0
   26.8884  230.0881   34.3497 C   0  0  0  0  0  0  0  0  0  0  0  0
   27.3881  230.3715   35.6042 C   0  0  0  0  0  0  0  0  0  0  0  0
   26.8894  229.7560   36.7317 C   0  0  0  0  0  0  0  0  0  0  0  0
   25.8709  228.8468   36.5441 C   0  0  0  0  0  0  0  0  0  0  0  0
   25.3738  228.5660   35.2878 C   0  0  0  0  0  0  0  0  0  0  0  0
   27.4336  230.0659   38.0889 C   0  0  0  0  0  0  0  0  0  0  0  0
   27.2995  225.7374   32.2383 C   0  0  0  0  0  0  0  0  0  0  0  0
   27.9450  225.7295   31.0037 O   0  0  0  0  0  0  0  0  0  0  0  0
   29.0656  224.4995   30.8584 P   0  0  1  0  0  5  0  0  0  0  0  0
   29.9100  224.3792   32.3209 O   0  0  0  0  0  0  0  0  0  0  0  0
   28.3223  223.1878   30.6719 O   0  0  0  0  0  0  0  0  0  0  0  0
   30.0933  224.6993   29.5456 O   0  0  0  0  0  0  0  0  0  0  0  0
   31.1040  225.5790   32.3109 P   0  0  2  0  0  5  0  0  0  0  0  0
   30.4986  227.0788   32.7603 O   0  0  0  0  0  0  0  0  0  0  0  0
   31.7837  225.6712   30.9663 O   0  0  0  0  0  0  0  0  0  0  0  0
   32.2989  225.1592   33.4544 O   0  0  0  0  0  0  0  0  0  0  0  0
  1  2  1  0
  2  3  1  0
  3  4  2  0
  3  5  1  0
  4 13  1  0
  5  6  1  0
  6  7  2  0
  6 11  1  0
  7  8  1  0
  8  9  2  0
  9 10  1  0
  9 12  1  0
 10 11  2  0
 13 14  1  0
 14 15  1  0
 15 16  1  0
 15 17  2  0
 15 18  1  6
 16 19  1  0
 19 20  1  1
 19 21  2  0
 19 22  1  0
M  END
$$$$
