
     RDKit          3D

 22 22  0  0  0  0  0  0  0  0999 V2000
   24.4648  225.8651   34.3689 O   0  0  0  0  0  0  0  0  0  0  0  0
   25.0186  226.4036   33.2043 C   0  0  0  0  0  0  0  0  0  0  0  0
   25.8288  227.6129   33.4881 C   0  0  0  0  0  0  0  0  0  0  0  0
   26.9263  227.9155   32.8200 C   0  0  0  0  0  0  0  0  0  0  0  0
   25.3463  228.5116   34.5858 C   0  0  0  0  0  0  0  0  0  0  0  0
   26.3623  229.5141   34.9962 C   0  0  0  0  0  0  0  0  0  0  0  0
   26.5843  230.6736   34.2801 C   0  0  0  0  0  0  0  0  0  0  0  0
   27.5277  231.6061   34.6597 C   0  0  0  0  0  0  0  0  0  0  0  0
   28.3040  231.4257   35.7839 C   0  0  0  0  0  0  0  0  0  0  0  0
   28.0915  230.2719   36.5068 C   0  0  0  0  0  0  0  0  0  0  0  0
   27.1470  229.3415   36.1240 C   0  0  0  0  0  0  0  0  0  0  0  0
   29.3249  232.4384   36.1916 C   0  0  0  0  0  0  0  0  0  0  0  0
   28.2978  227.4521   33.1245 C   0  0  0  0  0  0  0  0  0  0  0  0
   28.3489  226.0950   32.8136 O   0  0  0  0  0  0  0  0  0  0  0  0
   29.8867  225.4537   32.9304 P   0  0  1  0  0  5  0  0  0  0  0  0
   30.7311  225.8462   31.5163 O   0  0  0  0  0  0  0  0  0  0  0  0
   30.6101  226.1382   34.0776 O   0  0  0  0  0  0  0  0  0  0  0  0
   29.8881  223.8023   33.2339 O   0  0  0  0  0  0  0  0  0  0  0  0
   30.0986  224.8885   30.2722 P   0  0  2  0  0  5  0  0  0  0  0  0
   30.2886  223.2486   30.5764 O   0  0  0  0  0  0  0  0  0  0  0  0
   30.7046  225.2461   28.9369 O   0  0  0  0  0  0  0  0  0  0  0  0
   28.4219  225.1857   30.1631 O   0  0  0  0  0  0  0  0  0  0  0  0
  1  2  1  0
  2  3  1  0
  3  4  2  0
  3  5  1  0
  4 13  1  0
  5  6  1  0
  6  7  2  0
  6 11  1  0
  7  8  1  0
  8  9  2  0
  9 10  1  0
  9 12  1  0
 10 11  2  0
 13 14  1  0
 14 15  1  0
 15 16  1  0
 15 17  2  0
 15 18  1  1
 16 19  1  0
 19 20  1  1
 19 21  2  0
 19 22  1  0
M  END
$$$$
