
     RDKit          3D

 22 22  0  0  0  0  0  0  0  0999 V2000
   29.3572  230.3988   35.8161 O   0  0  0  0  0  0  0  0  0  0  0  0
   28.2143  229.5956   35.7743 C   0  0  0  0  0  0  0  0  0  0  0  0
   28.0486  228.9422   34.4534 C   0  0  0  0  0  0  0  0  0  0  0  0
   28.3443  227.6741   34.2369 C   0  0  0  0  0  0  0  0  0  0  0  0
   27.5136  229.7891   33.3389 C   0  0  0  0  0  0  0  0  0  0  0  0
   26.0352  229.7148   33.2194 C   0  0  0  0  0  0  0  0  0  0  0  0
   25.4093  229.3172   32.0547 C   0  0  0  0  0  0  0  0  0  0  0  0
   24.0359  229.2475   31.9417 C   0  0  0  0  0  0  0  0  0  0  0  0
   23.2111  229.5745   32.9960 C   0  0  0  0  0  0  0  0  0  0  0  0
   23.8244  229.9729   34.1640 C   0  0  0  0  0  0  0  0  0  0  0  0
   25.1983  230.0414   34.2732 C   0  0  0  0  0  0  0  0  0  0  0  0
   21.7238  229.4977   32.8695 C   0  0  0  0  0  0  0  0  0  0  0  0
   29.2629  227.1489   33.2030 C   0  0  0  0  0  0  0  0  0  0  0  0
   28.5588  227.1328   32.0010 O   0  0  0  0  0  0  0  0  0  0  0  0
   29.4211  226.4465   30.7459 P   0  0  1  0  0  5  0  0  0  0  0  0
   30.6400  225.4775   31.4106 O   0  0  0  0  0  0  0  0  0  0  0  0
   28.4968  225.5206   29.9737 O   0  0  0  0  0  0  0  0  0  0  0  0
   30.0286  227.5822   29.6686 O   0  0  0  0  0  0  0  0  0  0  0  0
   30.1300  223.8689   31.2785 P   0  0  2  0  0  5  0  0  0  0  0  0
   31.4205  222.8052   31.1342 O   0  0  0  0  0  0  0  0  0  0  0  0
   29.1706  223.6861   30.1277 O   0  0  0  0  0  0  0  0  0  0  0  0
   29.2941  223.4500   32.7058 O   0  0  0  0  0  0  0  0  0  0  0  0
  1  2  1  0
  2  3  1  0
  3  4  2  0
  3  5  1  0
  4 13  1  0
  5  6  1  0
  6  7  2  0
  6 11  1  0
  7  8  1  0
  8  9  2  0
  9 10  1  0
  9 12  1  0
 10 11  2  0
 13 14  1  0
 14 15  1  0
 15 16  1  0
 15 17  2  0
 15 18  1  6
 16 19  1  0
 19 20  1  6
 19 21  2  0
 19 22  1  0
M  END
$$$$
