
     RDKit          3D

 22 22  0  0  0  0  0  0  0  0999 V2000
   28.9116  225.1008   35.9508 O   0  0  0  0  0  0  0  0  0  0  0  0
   28.5987  226.4551   36.0964 C   0  0  0  0  0  0  0  0  0  0  0  0
   29.1280  227.2663   34.9734 C   0  0  0  0  0  0  0  0  0  0  0  0
   29.4728  226.7452   33.8106 C   0  0  0  0  0  0  0  0  0  0  0  0
   29.2582  228.7414   35.2031 C   0  0  0  0  0  0  0  0  0  0  0  0
   27.9766  229.4677   35.0147 C   0  0  0  0  0  0  0  0  0  0  0  0
   27.6506  230.0904   33.8262 C   0  0  0  0  0  0  0  0  0  0  0  0
   26.4604  230.7656   33.6492 C   0  0  0  0  0  0  0  0  0  0  0  0
   25.5275  230.8536   34.6595 C   0  0  0  0  0  0  0  0  0  0  0  0
   25.8417  230.2359   35.8506 C   0  0  0  0  0  0  0  0  0  0  0  0
   27.0331  229.5614   36.0239 C   0  0  0  0  0  0  0  0  0  0  0  0
   24.2394  231.5861   34.4635 C   0  0  0  0  0  0  0  0  0  0  0  0
   29.0230  227.1973   32.4758 C   0  0  0  0  0  0  0  0  0  0  0  0
   27.9238  226.4149   32.1285 O   0  0  0  0  0  0  0  0  0  0  0  0
   27.9012  225.9982   30.5112 P   0  0  1  0  0  5  0  0  0  0  0  0
   29.4965  225.7255   30.0140 O   0  0  0  0  0  0  0  0  0  0  0  0
   27.1636  224.6785   30.3622 O   0  0  0  0  0  0  0  0  0  0  0  0
   27.1217  227.1341   29.5514 O   0  0  0  0  0  0  0  0  0  0  0  0
   30.0260  224.3120   30.7800 P   0  0  2  0  0  5  0  0  0  0  0  0
   28.9607  223.0340   30.5578 O   0  0  0  0  0  0  0  0  0  0  0  0
   30.2700  224.5393   32.2521 O   0  0  0  0  0  0  0  0  0  0  0  0
   31.5144  223.8486   30.0859 O   0  0  0  0  0  0  0  0  0  0  0  0
  1  2  1  0
  2  3  1  0
  3  4  2  0
  3  5  1  0
  4 13  1  0
  5  6  1  0
  6  7  2  0
  6 11  1  0
  7  8  1  0
  8  9  2  0
  9 10  1  0
  9 12  1  0
 10 11  2  0
 13 14  1  0
 14 15  1  0
 15 16  1  0
 15 17  2  0
 15 18  1  6
 16 19  1  0
 19 20  1  1
 19 21  2  0
 19 22  1  0
M  END
$$$$
