
     RDKit          3D

 22 22  0  0  0  0  0  0  0  0999 V2000
   24.5298  229.6235   32.7418 O   0  0  0  0  0  0  0  0  0  0  0  0
   25.7470  230.2350   33.0541 C   0  0  0  0  0  0  0  0  0  0  0  0
   26.8771  229.2768   32.9897 C   0  0  0  0  0  0  0  0  0  0  0  0
   26.7643  228.0662   32.4757 C   0  0  0  0  0  0  0  0  0  0  0  0
   28.1928  229.7403   33.5371 C   0  0  0  0  0  0  0  0  0  0  0  0
   28.1205  230.1062   34.9745 C   0  0  0  0  0  0  0  0  0  0  0  0
   27.9624  231.4117   35.3954 C   0  0  0  0  0  0  0  0  0  0  0  0
   27.8949  231.7536   36.7304 C   0  0  0  0  0  0  0  0  0  0  0  0
   27.9828  230.8000   37.7213 C   0  0  0  0  0  0  0  0  0  0  0  0
   28.1408  229.4932   37.3134 C   0  0  0  0  0  0  0  0  0  0  0  0
   28.2078  229.1551   35.9772 C   0  0  0  0  0  0  0  0  0  0  0  0
   27.9093  231.1747   39.1664 C   0  0  0  0  0  0  0  0  0  0  0  0
   27.7982  227.0081   32.4812 C   0  0  0  0  0  0  0  0  0  0  0  0
   27.8539  226.4847   31.1913 O   0  0  0  0  0  0  0  0  0  0  0  0
   28.0557  224.8269   31.1653 P   0  0  1  0  0  5  0  0  0  0  0  0
   29.1881  224.4143   32.3543 O   0  0  0  0  0  0  0  0  0  0  0  0
   26.7433  224.1738   31.5640 O   0  0  0  0  0  0  0  0  0  0  0  0
   28.4823  224.2411   29.6507 O   0  0  0  0  0  0  0  0  0  0  0  0
   30.7254  224.6620   31.6905 P   0  0  2  0  0  5  0  0  0  0  0  0
   31.9487  224.3931   32.8080 O   0  0  0  0  0  0  0  0  0  0  0  0
   30.8547  226.0434   31.0962 O   0  0  0  0  0  0  0  0  0  0  0  0
   30.9514  223.5424   30.4228 O   0  0  0  0  0  0  0  0  0  0  0  0
  1  2  1  0
  2  3  1  0
  3  4  2  0
  3  5  1  0
  4 13  1  0
  5  6  1  0
  6  7  2  0
  6 11  1  0
  7  8  1  0
  8  9  2  0
  9 10  1  0
  9 12  1  0
 10 11  2  0
 13 14  1  0
 14 15  1  0
 15 16  1  0
 15 17  2  0
 15 18  1  6
 16 19  1  0
 19 20  1  1
 19 21  2  0
 19 22  1  0
M  END
$$$$
