
     RDKit          3D

 22 22  0  0  0  0  0  0  0  0999 V2000
   24.1139  228.5398   30.9767 O   0  0  0  0  0  0  0  0  0  0  0  0
   24.4905  228.2429   32.2894 C   0  0  0  0  0  0  0  0  0  0  0  0
   25.9550  228.0436   32.4103 C   0  0  0  0  0  0  0  0  0  0  0  0
   26.7709  228.0624   31.3728 C   0  0  0  0  0  0  0  0  0  0  0  0
   26.4986  227.8193   33.7887 C   0  0  0  0  0  0  0  0  0  0  0  0
   26.9676  229.0726   34.4326 C   0  0  0  0  0  0  0  0  0  0  0  0
   28.3028  229.3148   34.6877 C   0  0  0  0  0  0  0  0  0  0  0  0
   28.7405  230.4786   35.2858 C   0  0  0  0  0  0  0  0  0  0  0  0
   27.8586  231.4681   35.6626 C   0  0  0  0  0  0  0  0  0  0  0  0
   26.5230  231.2377   35.4130 C   0  0  0  0  0  0  0  0  0  0  0  0
   26.0890  230.0724   34.8147 C   0  0  0  0  0  0  0  0  0  0  0  0
   28.3370  232.7273   36.3102 C   0  0  0  0  0  0  0  0  0  0  0  0
   28.0963  227.4114   31.2838 C   0  0  0  0  0  0  0  0  0  0  0  0
   27.8824  226.0369   31.3621 O   0  0  0  0  0  0  0  0  0  0  0  0
   28.8984  225.1584   30.3693 P   0  0  1  0  0  5  0  0  0  0  0  0
   30.4703  225.2740   30.9875 O   0  0  0  0  0  0  0  0  0  0  0  0
   28.5030  223.6937   30.4473 O   0  0  0  0  0  0  0  0  0  0  0  0
   28.8122  225.6292   28.7599 O   0  0  0  0  0  0  0  0  0  0  0  0
   30.5957  224.1553   32.2516 P   0  0  2  0  0  5  0  0  0  0  0  0
   31.9950  223.2343   32.1458 O   0  0  0  0  0  0  0  0  0  0  0  0
   29.3835  223.2587   32.3185 O   0  0  0  0  0  0  0  0  0  0  0  0
   30.6724  225.0135   33.7245 O   0  0  0  0  0  0  0  0  0  0  0  0
  1  2  1  0
  2  3  1  0
  3  4  2  0
  3  5  1  0
  4 13  1  0
  5  6  1  0
  6  7  2  0
  6 11  1  0
  7  8  1  0
  8  9  2  0
  9 10  1  0
  9 12  1  0
 10 11  2  0
 13 14  1  0
 14 15  1  0
 15 16  1  0
 15 17  2  0
 15 18  1  6
 16 19  1  0
 19 20  1  6
 19 21  2  0
 19 22  1  0
M  END
$$$$
