
     RDKit          3D

 22 22  0  0  0  0  0  0  0  0999 V2000
   24.3434  230.0255   32.1722 O   0  0  0  0  0  0  0  0  0  0  0  0
   25.7030  230.2864   32.3629 C   0  0  0  0  0  0  0  0  0  0  0  0
   26.4849  229.0376   32.5312 C   0  0  0  0  0  0  0  0  0  0  0  0
   25.9786  227.8380   32.3143 C   0  0  0  0  0  0  0  0  0  0  0  0
   27.9127  229.1829   32.9626 C   0  0  0  0  0  0  0  0  0  0  0  0
   28.0450  229.5750   34.3889 C   0  0  0  0  0  0  0  0  0  0  0  0
   28.5274  228.7083   35.3494 C   0  0  0  0  0  0  0  0  0  0  0  0
   28.6512  229.0707   36.6750 C   0  0  0  0  0  0  0  0  0  0  0  0
   28.2960  230.3284   37.1118 C   0  0  0  0  0  0  0  0  0  0  0  0
   27.8131  231.2024   36.1621 C   0  0  0  0  0  0  0  0  0  0  0  0
   27.6908  230.8363   34.8372 C   0  0  0  0  0  0  0  0  0  0  0  0
   28.4316  230.7170   38.5487 C   0  0  0  0  0  0  0  0  0  0  0  0
   26.7268  226.5627   32.2660 C   0  0  0  0  0  0  0  0  0  0  0  0
   27.2635  226.4521   30.9852 O   0  0  0  0  0  0  0  0  0  0  0  0
   28.3662  225.2058   30.8424 P   0  0  1  0  0  5  0  0  0  0  0  0
   29.3598  225.2204   32.2131 O   0  0  0  0  0  0  0  0  0  0  0  0
   27.6113  223.8876   30.8618 O   0  0  0  0  0  0  0  0  0  0  0  0
   29.2499  225.2711   29.4161 O   0  0  0  0  0  0  0  0  0  0  0  0
   30.8961  224.7043   31.7247 P   0  0  2  0  0  5  0  0  0  0  0  0
   32.0058  224.7390   32.9837 O   0  0  0  0  0  0  0  0  0  0  0  0
   31.4054  225.5131   30.5565 O   0  0  0  0  0  0  0  0  0  0  0  0
   30.7797  223.0830   31.2055 O   0  0  0  0  0  0  0  0  0  0  0  0
  1  2  1  0
  2  3  1  0
  3  4  2  0
  3  5  1  0
  4 13  1  0
  5  6  1  0
  6  7  2  0
  6 11  1  0
  7  8  1  0
  8  9  2  0
  9 10  1  0
  9 12  1  0
 10 11  2  0
 13 14  1  0
 14 15  1  0
 15 16  1  0
 15 17  2  0
 15 18  1  6
 16 19  1  0
 19 20  1  1
 19 21  2  0
 19 22  1  0
M  END
$$$$
