
     RDKit          3D

 22 22  0  0  0  0  0  0  0  0999 V2000
   24.9126  228.6343   32.8991 O   0  0  0  0  0  0  0  0  0  0  0  0
   25.5647  229.2017   33.9972 C   0  0  0  0  0  0  0  0  0  0  0  0
   26.9828  228.7751   34.0762 C   0  0  0  0  0  0  0  0  0  0  0  0
   27.5483  227.9905   33.1778 C   0  0  0  0  0  0  0  0  0  0  0  0
   27.7809  229.2818   35.2390 C   0  0  0  0  0  0  0  0  0  0  0  0
   27.7134  230.7583   35.3827 C   0  0  0  0  0  0  0  0  0  0  0  0
   28.3676  231.6133   34.5181 C   0  0  0  0  0  0  0  0  0  0  0  0
   28.3061  232.9853   34.6499 C   0  0  0  0  0  0  0  0  0  0  0  0
   27.5814  233.5779   35.6611 C   0  0  0  0  0  0  0  0  0  0  0  0
   26.9240  232.7346   36.5305 C   0  0  0  0  0  0  0  0  0  0  0  0
   26.9879  231.3628   36.3955 C   0  0  0  0  0  0  0  0  0  0  0  0
   27.5174  235.0647   35.8004 C   0  0  0  0  0  0  0  0  0  0  0  0
   28.9092  227.4144   33.2448 C   0  0  0  0  0  0  0  0  0  0  0  0
   28.9759  226.4109   32.2806 O   0  0  0  0  0  0  0  0  0  0  0  0
   30.2575  225.3650   32.5113 P   0  0  1  0  0  5  0  0  0  0  0  0
   29.8027  223.8382   31.9381 O   0  0  0  0  0  0  0  0  0  0  0  0
   31.4205  225.8282   31.6506 O   0  0  0  0  0  0  0  0  0  0  0  0
   30.7852  225.3145   34.1045 O   0  0  0  0  0  0  0  0  0  0  0  0
   29.7126  223.9421   30.2511 P   0  0  2  0  0  5  0  0  0  0  0  0
   29.9347  222.4515   29.5120 O   0  0  0  0  0  0  0  0  0  0  0  0
   30.6973  224.9478   29.7059 O   0  0  0  0  0  0  0  0  0  0  0  0
   28.1504  224.4823   29.8275 O   0  0  0  0  0  0  0  0  0  0  0  0
  1  2  1  0
  2  3  1  0
  3  4  2  0
  3  5  1  0
  4 13  1  0
  5  6  1  0
  6  7  2  0
  6 11  1  0
  7  8  1  0
  8  9  2  0
  9 10  1  0
  9 12  1  0
 10 11  2  0
 13 14  1  0
 14 15  1  0
 15 16  1  0
 15 17  2  0
 15 18  1  1
 16 19  1  0
 19 20  1  6
 19 21  2  0
 19 22  1  0
M  END
$$$$
