
     RDKit          3D

 22 22  0  0  0  0  0  0  0  0999 V2000
   24.3732  228.6589   32.8936 O   0  0  0  0  0  0  0  0  0  0  0  0
   25.2517  229.7131   33.1577 C   0  0  0  0  0  0  0  0  0  0  0  0
   26.6595  229.3399   32.8780 C   0  0  0  0  0  0  0  0  0  0  0  0
   26.9963  228.2393   32.2318 C   0  0  0  0  0  0  0  0  0  0  0  0
   27.7207  230.2816   33.3606 C   0  0  0  0  0  0  0  0  0  0  0  0
   27.7498  230.4050   34.8402 C   0  0  0  0  0  0  0  0  0  0  0  0
   27.0856  231.4144   35.5085 C   0  0  0  0  0  0  0  0  0  0  0  0
   27.1115  231.5307   36.8831 C   0  0  0  0  0  0  0  0  0  0  0  0
   27.8084  230.6367   37.6665 C   0  0  0  0  0  0  0  0  0  0  0  0
   28.4755  229.6247   37.0107 C   0  0  0  0  0  0  0  0  0  0  0  0
   28.4473  229.5116   35.6357 C   0  0  0  0  0  0  0  0  0  0  0  0
   27.8339  230.7664   39.1554 C   0  0  0  0  0  0  0  0  0  0  0  0
   28.1893  227.4014   32.4834 C   0  0  0  0  0  0  0  0  0  0  0  0
   27.8129  226.0782   32.2634 O   0  0  0  0  0  0  0  0  0  0  0  0
   28.4162  225.4542   30.8363 P   0  0  1  0  0  5  0  0  0  0  0  0
   30.1052  225.5609   30.8859 O   0  0  0  0  0  0  0  0  0  0  0  0
   28.0718  223.9760   30.7712 O   0  0  0  0  0  0  0  0  0  0  0  0
   27.7725  226.1927   29.4727 O   0  0  0  0  0  0  0  0  0  0  0  0
   30.6752  224.1521   31.6312 P   0  0  2  0  0  5  0  0  0  0  0  0
   32.3320  223.9611   31.4413 O   0  0  0  0  0  0  0  0  0  0  0  0
   29.9471  222.9285   31.1303 O   0  0  0  0  0  0  0  0  0  0  0  0
   30.3743  224.2697   33.3067 O   0  0  0  0  0  0  0  0  0  0  0  0
  1  2  1  0
  2  3  1  0
  3  4  2  0
  3  5  1  0
  4 13  1  0
  5  6  1  0
  6  7  2  0
  6 11  1  0
  7  8  1  0
  8  9  2  0
  9 10  1  0
  9 12  1  0
 10 11  2  0
 13 14  1  0
 14 15  1  0
 15 16  1  0
 15 17  2  0
 15 18  1  6
 16 19  1  0
 19 20  1  1
 19 21  2  0
 19 22  1  0
M  END
$$$$
