
     RDKit          3D

 22 22  0  0  0  0  0  0  0  0999 V2000
   29.8408  228.7269   34.4204 O   0  0  0  0  0  0  0  0  0  0  0  0
   28.8241  229.6748   34.2764 C   0  0  0  0  0  0  0  0  0  0  0  0
   27.4833  229.0423   34.2356 C   0  0  0  0  0  0  0  0  0  0  0  0
   27.3032  227.7359   34.2917 C   0  0  0  0  0  0  0  0  0  0  0  0
   26.3025  229.9591   34.1316 C   0  0  0  0  0  0  0  0  0  0  0  0
   26.4931  231.2287   34.8781 C   0  0  0  0  0  0  0  0  0  0  0  0
   26.6561  231.2600   36.2489 C   0  0  0  0  0  0  0  0  0  0  0  0
   26.8333  232.4385   36.9442 C   0  0  0  0  0  0  0  0  0  0  0  0
   26.8569  233.6561   36.2995 C   0  0  0  0  0  0  0  0  0  0  0  0
   26.6953  233.6376   34.9310 C   0  0  0  0  0  0  0  0  0  0  0  0
   26.5183  232.4569   34.2390 C   0  0  0  0  0  0  0  0  0  0  0  0
   27.0492  234.9305   37.0565 C   0  0  0  0  0  0  0  0  0  0  0  0
   28.3066  226.6950   33.9781 C   0  0  0  0  0  0  0  0  0  0  0  0
   28.9211  227.0665   32.7842 O   0  0  0  0  0  0  0  0  0  0  0  0
   29.8968  225.8687   32.1494 P   0  0  1  0  0  5  0  0  0  0  0  0
   28.9003  224.6873   31.4581 O   0  0  0  0  0  0  0  0  0  0  0  0
   30.7202  226.4638   31.0199 O   0  0  0  0  0  0  0  0  0  0  0  0
   30.9608  225.2226   33.2762 O   0  0  0  0  0  0  0  0  0  0  0  0
   29.8681  223.7537   30.4300 P   0  0  2  0  0  5  0  0  0  0  0  0
   31.0042  222.8523   31.2752 O   0  0  0  0  0  0  0  0  0  0  0  0
   30.5483  224.6060   29.3864 O   0  0  0  0  0  0  0  0  0  0  0  0
   28.8654  222.6469   29.6046 O   0  0  0  0  0  0  0  0  0  0  0  0
  1  2  1  0
  2  3  1  0
  3  4  2  0
  3  5  1  0
  4 13  1  0
  5  6  1  0
  6  7  2  0
  6 11  1  0
  7  8  1  0
  8  9  2  0
  9 10  1  0
  9 12  1  0
 10 11  2  0
 13 14  1  0
 14 15  1  0
 15 16  1  0
 15 17  2  0
 15 18  1  1
 16 19  1  0
 19 20  1  1
 19 21  2  0
 19 22  1  0
M  END
$$$$
