
     RDKit          3D

 22 22  0  0  0  0  0  0  0  0999 V2000
   26.4369  230.4215   31.8602 O   0  0  0  0  0  0  0  0  0  0  0  0
   26.0881  229.6054   32.9397 C   0  0  0  0  0  0  0  0  0  0  0  0
   26.7505  228.2806   32.8650 C   0  0  0  0  0  0  0  0  0  0  0  0
   26.9161  227.6229   31.7327 C   0  0  0  0  0  0  0  0  0  0  0  0
   27.2467  227.6957   34.1524 C   0  0  0  0  0  0  0  0  0  0  0  0
   27.5483  228.7295   35.1749 C   0  0  0  0  0  0  0  0  0  0  0  0
   26.5675  229.2854   35.9722 C   0  0  0  0  0  0  0  0  0  0  0  0
   26.8458  230.2460   36.9227 C   0  0  0  0  0  0  0  0  0  0  0  0
   28.1293  230.7040   37.1266 C   0  0  0  0  0  0  0  0  0  0  0  0
   29.1170  230.1565   36.3367 C   0  0  0  0  0  0  0  0  0  0  0  0
   28.8348  229.1959   35.3870 C   0  0  0  0  0  0  0  0  0  0  0  0
   28.4264  231.7447   38.1574 C   0  0  0  0  0  0  0  0  0  0  0  0
   27.5876  226.3155   31.5646 C   0  0  0  0  0  0  0  0  0  0  0  0
   28.6197  226.5012   30.6474 O   0  0  0  0  0  0  0  0  0  0  0  0
   28.9830  225.1199   29.7816 P   0  0  1  0  0  5  0  0  0  0  0  0
   30.4341  224.4870   30.3819 O   0  0  0  0  0  0  0  0  0  0  0  0
   27.9067  224.0825   30.0523 O   0  0  0  0  0  0  0  0  0  0  0  0
   29.0408  225.3802   28.1238 O   0  0  0  0  0  0  0  0  0  0  0  0
   30.2755  224.3766   32.0635 P   0  0  2  0  0  5  0  0  0  0  0  0
   28.9465  223.4561   32.5153 O   0  0  0  0  0  0  0  0  0  0  0  0
   30.2074  225.7421   32.7031 O   0  0  0  0  0  0  0  0  0  0  0  0
   31.6593  223.5951   32.6848 O   0  0  0  0  0  0  0  0  0  0  0  0
  1  2  1  0
  2  3  1  0
  3  4  2  0
  3  5  1  0
  4 13  1  0
  5  6  1  0
  6  7  2  0
  6 11  1  0
  7  8  1  0
  8  9  2  0
  9 10  1  0
  9 12  1  0
 10 11  2  0
 13 14  1  0
 14 15  1  0
 15 16  1  0
 15 17  2  0
 15 18  1  6
 16 19  1  0
 19 20  1  6
 19 21  2  0
 19 22  1  0
M  END
$$$$
