
     RDKit          3D

 22 22  0  0  0  0  0  0  0  0999 V2000
   25.4989  231.1492   32.0330 O   0  0  0  0  0  0  0  0  0  0  0  0
   25.0488  229.8841   32.4199 C   0  0  0  0  0  0  0  0  0  0  0  0
   26.0781  229.1455   33.1909 C   0  0  0  0  0  0  0  0  0  0  0  0
   27.2409  228.7883   32.6784 C   0  0  0  0  0  0  0  0  0  0  0  0
   25.7509  228.8117   34.6147 C   0  0  0  0  0  0  0  0  0  0  0  0
   26.3865  229.7407   35.5834 C   0  0  0  0  0  0  0  0  0  0  0  0
   27.5879  229.4532   36.2002 C   0  0  0  0  0  0  0  0  0  0  0  0
   28.1800  230.3150   37.1004 C   0  0  0  0  0  0  0  0  0  0  0  0
   27.5966  231.5183   37.4330 C   0  0  0  0  0  0  0  0  0  0  0  0
   26.3970  231.8163   36.8237 C   0  0  0  0  0  0  0  0  0  0  0  0
   25.8078  230.9518   35.9238 C   0  0  0  0  0  0  0  0  0  0  0  0
   28.2414  232.4490   38.4088 C   0  0  0  0  0  0  0  0  0  0  0  0
   27.7630  227.4094   32.5579 C   0  0  0  0  0  0  0  0  0  0  0  0
   27.6274  227.0365   31.2224 O   0  0  0  0  0  0  0  0  0  0  0  0
   28.4529  225.6339   30.8469 P   0  0  1  0  0  5  0  0  0  0  0  0
   30.0461  225.7960   31.3963 O   0  0  0  0  0  0  0  0  0  0  0  0
   27.8348  224.4857   31.6262 O   0  0  0  0  0  0  0  0  0  0  0  0
   28.3797  225.2459   29.2149 O   0  0  0  0  0  0  0  0  0  0  0  0
   30.6379  224.2368   31.6858 P   0  0  2  0  0  5  0  0  0  0  0  0
   32.1996  224.2562   32.3010 O   0  0  0  0  0  0  0  0  0  0  0  0
   30.5763  223.3826   30.4429 O   0  0  0  0  0  0  0  0  0  0  0  0
   29.6473  223.4942   32.8600 O   0  0  0  0  0  0  0  0  0  0  0  0
  1  2  1  0
  2  3  1  0
  3  4  2  0
  3  5  1  0
  4 13  1  0
  5  6  1  0
  6  7  2  0
  6 11  1  0
  7  8  1  0
  8  9  2  0
  9 10  1  0
  9 12  1  0
 10 11  2  0
 13 14  1  0
 14 15  1  0
 15 16  1  0
 15 17  2  0
 15 18  1  6
 16 19  1  0
 19 20  1  1
 19 21  2  0
 19 22  1  0
M  END
$$$$
