
     RDKit          3D

 22 22  0  0  0  0  0  0  0  0999 V2000
   25.8426  227.3871   31.3549 O   0  0  0  0  0  0  0  0  0  0  0  0
   25.6225  228.1601   32.4982 C   0  0  0  0  0  0  0  0  0  0  0  0
   26.7596  229.0713   32.7740 C   0  0  0  0  0  0  0  0  0  0  0  0
   28.0187  228.7308   32.5715 C   0  0  0  0  0  0  0  0  0  0  0  0
   26.4258  230.4341   33.3003 C   0  0  0  0  0  0  0  0  0  0  0  0
   26.4128  230.4899   34.7842 C   0  0  0  0  0  0  0  0  0  0  0  0
   25.3163  230.0986   35.5266 C   0  0  0  0  0  0  0  0  0  0  0  0
   25.3022  230.1496   36.9053 C   0  0  0  0  0  0  0  0  0  0  0  0
   26.3927  230.5981   37.6185 C   0  0  0  0  0  0  0  0  0  0  0  0
   27.4933  230.9915   36.8884 C   0  0  0  0  0  0  0  0  0  0  0  0
   27.5036  230.9390   35.5095 C   0  0  0  0  0  0  0  0  0  0  0  0
   26.3733  230.6518   39.1121 C   0  0  0  0  0  0  0  0  0  0  0  0
   28.5215  227.3821   32.2300 C   0  0  0  0  0  0  0  0  0  0  0  0
   29.8491  227.3230   32.6484 O   0  0  0  0  0  0  0  0  0  0  0  0
   30.4234  225.7606   32.7863 P   0  0  1  0  0  5  0  0  0  0  0  0
   29.1972  224.7020   32.2940 O   0  0  0  0  0  0  0  0  0  0  0  0
   31.5752  225.5811   31.8122 O   0  0  0  0  0  0  0  0  0  0  0  0
   30.9913  225.4034   34.3255 O   0  0  0  0  0  0  0  0  0  0  0  0
   29.4743  224.3366   30.6646 P   0  0  2  0  0  5  0  0  0  0  0  0
   30.8091  223.3402   30.4571 O   0  0  0  0  0  0  0  0  0  0  0  0
   29.6226  225.5887   29.8348 O   0  0  0  0  0  0  0  0  0  0  0  0
   28.1200  223.4893   30.0649 O   0  0  0  0  0  0  0  0  0  0  0  0
  1  2  1  0
  2  3  1  0
  3  4  2  0
  3  5  1  0
  4 13  1  0
  5  6  1  0
  6  7  2  0
  6 11  1  0
  7  8  1  0
  8  9  2  0
  9 10  1  0
  9 12  1  0
 10 11  2  0
 13 14  1  0
 14 15  1  0
 15 16  1  0
 15 17  2  0
 15 18  1  1
 16 19  1  0
 19 20  1  1
 19 21  2  0
 19 22  1  0
M  END
$$$$
