
     RDKit          3D

 22 22  0  0  0  0  0  0  0  0999 V2000
   27.2158  231.0786   32.2403 O   0  0  0  0  0  0  0  0  0  0  0  0
   28.1119  230.5035   33.1454 C   0  0  0  0  0  0  0  0  0  0  0  0
   27.7449  229.1036   33.4695 C   0  0  0  0  0  0  0  0  0  0  0  0
   26.9285  228.3836   32.7229 C   0  0  0  0  0  0  0  0  0  0  0  0
   28.3520  228.5107   34.7046 C   0  0  0  0  0  0  0  0  0  0  0  0
   27.5000  228.6915   35.9074 C   0  0  0  0  0  0  0  0  0  0  0  0
   26.3089  229.3889   35.8684 C   0  0  0  0  0  0  0  0  0  0  0  0
   25.5159  229.5580   36.9848 C   0  0  0  0  0  0  0  0  0  0  0  0
   25.8759  229.0342   38.2075 C   0  0  0  0  0  0  0  0  0  0  0  0
   27.0629  228.3359   38.2588 C   0  0  0  0  0  0  0  0  0  0  0  0
   27.8534  228.1689   37.1401 C   0  0  0  0  0  0  0  0  0  0  0  0
   25.0140  229.2196   39.4144 C   0  0  0  0  0  0  0  0  0  0  0  0
   27.0909  226.9574   32.3651 C   0  0  0  0  0  0  0  0  0  0  0  0
   28.3687  226.5776   32.7699 O   0  0  0  0  0  0  0  0  0  0  0  0
   28.5682  224.9207   32.8398 P   0  0  1  0  0  5  0  0  0  0  0  0
   28.4503  224.3080   31.2659 O   0  0  0  0  0  0  0  0  0  0  0  0
   29.9778  224.6234   33.3218 O   0  0  0  0  0  0  0  0  0  0  0  0
   27.4959  224.1742   33.8944 O   0  0  0  0  0  0  0  0  0  0  0  0
   29.8346  224.8060   30.4287 P   0  0  2  0  0  5  0  0  0  0  0  0
   29.9396  224.1073   28.9061 O   0  0  0  0  0  0  0  0  0  0  0  0
   31.0894  224.5266   31.2197 O   0  0  0  0  0  0  0  0  0  0  0  0
   29.7467  226.4945   30.1988 O   0  0  0  0  0  0  0  0  0  0  0  0
  1  2  1  0
  2  3  1  0
  3  4  2  0
  3  5  1  0
  4 13  1  0
  5  6  1  0
  6  7  2  0
  6 11  1  0
  7  8  1  0
  8  9  2  0
  9 10  1  0
  9 12  1  0
 10 11  2  0
 13 14  1  0
 14 15  1  0
 15 16  1  0
 15 17  2  0
 15 18  1  1
 16 19  1  0
 19 20  1  6
 19 21  2  0
 19 22  1  0
M  END
$$$$
