
     RDKit          3D

 22 22  0  0  0  0  0  0  0  0999 V2000
   25.4902  227.9439   32.7870 O   0  0  0  0  0  0  0  0  0  0  0  0
   26.6934  228.2907   32.1664 C   0  0  0  0  0  0  0  0  0  0  0  0
   27.6332  228.9406   33.1117 C   0  0  0  0  0  0  0  0  0  0  0  0
   28.5325  228.2691   33.8065 C   0  0  0  0  0  0  0  0  0  0  0  0
   27.5322  230.4288   33.2547 C   0  0  0  0  0  0  0  0  0  0  0  0
   27.0282  230.8452   34.5880 C   0  0  0  0  0  0  0  0  0  0  0  0
   27.8512  231.4057   35.5447 C   0  0  0  0  0  0  0  0  0  0  0  0
   27.3847  231.7932   36.7840 C   0  0  0  0  0  0  0  0  0  0  0  0
   26.0607  231.6390   37.1335 C   0  0  0  0  0  0  0  0  0  0  0  0
   25.2295  231.0806   36.1868 C   0  0  0  0  0  0  0  0  0  0  0  0
   25.6996  230.6943   34.9482 C   0  0  0  0  0  0  0  0  0  0  0  0
   25.5596  232.0602   38.4772 C   0  0  0  0  0  0  0  0  0  0  0  0
   28.8901  226.8435   33.6377 C   0  0  0  0  0  0  0  0  0  0  0  0
   30.0187  226.7992   32.8221 O   0  0  0  0  0  0  0  0  0  0  0  0
   30.4426  225.2470   32.3742 P   0  0  1  0  0  5  0  0  0  0  0  0
   29.0766  224.4968   31.7126 O   0  0  0  0  0  0  0  0  0  0  0  0
   31.4780  225.3294   31.2656 O   0  0  0  0  0  0  0  0  0  0  0  0
   31.1080  224.3587   33.6342 O   0  0  0  0  0  0  0  0  0  0  0  0
   29.1327  224.7390   30.0383 P   0  0  2  0  0  5  0  0  0  0  0  0
   27.8281  224.0336   29.2522 O   0  0  0  0  0  0  0  0  0  0  0  0
   30.4299  224.2388   29.4507 O   0  0  0  0  0  0  0  0  0  0  0  0
   29.0525  226.4161   29.7338 O   0  0  0  0  0  0  0  0  0  0  0  0
  1  2  1  0
  2  3  1  0
  3  4  2  0
  3  5  1  0
  4 13  1  0
  5  6  1  0
  6  7  2  0
  6 11  1  0
  7  8  1  0
  8  9  2  0
  9 10  1  0
  9 12  1  0
 10 11  2  0
 13 14  1  0
 14 15  1  0
 15 16  1  0
 15 17  2  0
 15 18  1  1
 16 19  1  0
 19 20  1  6
 19 21  2  0
 19 22  1  0
M  END
$$$$
