
     RDKit          3D

 22 22  0  0  0  0  0  0  0  0999 V2000
   30.6578  228.5934   35.3965 O   0  0  0  0  0  0  0  0  0  0  0  0
   29.8177  227.5169   35.0996 C   0  0  0  0  0  0  0  0  0  0  0  0
   28.4514  227.9677   34.7397 C   0  0  0  0  0  0  0  0  0  0  0  0
   27.9296  227.7923   33.5400 C   0  0  0  0  0  0  0  0  0  0  0  0
   27.6543  228.6438   35.8135 C   0  0  0  0  0  0  0  0  0  0  0  0
   27.3998  230.0779   35.5236 C   0  0  0  0  0  0  0  0  0  0  0  0
   27.8947  231.0900   36.3219 C   0  0  0  0  0  0  0  0  0  0  0  0
   27.6595  232.4229   36.0542 C   0  0  0  0  0  0  0  0  0  0  0  0
   26.9112  232.8157   34.9657 C   0  0  0  0  0  0  0  0  0  0  0  0
   26.4118  231.8143   34.1614 C   0  0  0  0  0  0  0  0  0  0  0  0
   26.6493  230.4822   34.4324 C   0  0  0  0  0  0  0  0  0  0  0  0
   26.6587  234.2608   34.6794 C   0  0  0  0  0  0  0  0  0  0  0  0
   28.4852  226.9577   32.4522 C   0  0  0  0  0  0  0  0  0  0  0  0
   27.9720  225.6734   32.6198 O   0  0  0  0  0  0  0  0  0  0  0  0
   29.1440  224.4854   32.5501 P   0  0  1  0  0  5  0  0  0  0  0  0
   28.9505  223.6375   31.0975 O   0  0  0  0  0  0  0  0  0  0  0  0
   30.5069  225.1537   32.4897 O   0  0  0  0  0  0  0  0  0  0  0  0
   29.1286  223.4688   33.8863 O   0  0  0  0  0  0  0  0  0  0  0  0
   29.6815  224.5570   29.8788 P   0  0  2  0  0  5  0  0  0  0  0  0
   31.3506  224.6171   30.0456 O   0  0  0  0  0  0  0  0  0  0  0  0
   29.1111  225.9533   29.8225 O   0  0  0  0  0  0  0  0  0  0  0  0
   29.3556  223.8162   28.3765 O   0  0  0  0  0  0  0  0  0  0  0  0
  1  2  1  0
  2  3  1  0
  3  4  2  0
  3  5  1  0
  4 13  1  0
  5  6  1  0
  6  7  2  0
  6 11  1  0
  7  8  1  0
  8  9  2  0
  9 10  1  0
  9 12  1  0
 10 11  2  0
 13 14  1  0
 14 15  1  0
 15 16  1  0
 15 17  2  0
 15 18  1  1
 16 19  1  0
 19 20  1  1
 19 21  2  0
 19 22  1  0
M  END
$$$$
