
     RDKit          3D

 29 32  0  0  0  0  0  0  0  0999 V2000
    4.3658   24.5384   23.8263 C   0  0  0  0  0  0  0  0  0  0  0  0
    4.8034   24.5465   25.2076 C   0  0  0  0  0  0  0  0  0  0  0  0
    5.4919   23.4329   25.7045 C   0  0  0  0  0  0  0  0  0  0  0  0
    5.7146   24.3466   27.8173 C   0  0  0  0  0  0  0  0  0  0  0  0
    6.7934   23.2898   31.0740 C   0  0  0  0  0  0  0  0  0  0  0  0
    6.9440   24.6441   31.1738 C   0  0  0  0  0  0  0  0  0  0  0  0
    6.5635   25.1864   29.9625 C   0  0  0  0  0  0  0  0  0  0  0  0
    4.5943   25.5660   26.1031 C   0  0  0  0  0  0  0  0  0  0  0  0
    4.5524   24.1449   21.3533 C   0  0  0  0  0  0  0  0  0  0  0  0
    5.4710   23.4195   20.4541 C   0  0  0  0  0  0  0  0  0  0  0  0
    6.7191   22.9744   20.8478 C   0  0  0  0  0  0  0  0  0  0  0  0
    7.5403   22.3093   19.9573 C   0  0  0  0  0  0  0  0  0  0  0  0
    5.0907   23.1681   19.1489 C   0  0  0  0  0  0  0  0  0  0  0  0
    5.9121   22.5028   18.2549 C   0  0  0  0  0  0  0  0  0  0  0  0
    7.1491   22.0711   18.6679 C   0  0  0  0  0  0  0  0  0  0  0  0
    7.7502   20.0712   17.5477 C   0  0  0  0  0  0  0  0  0  0  0  0
    8.3583   19.3845   16.5324 C   0  0  0  0  0  0  0  0  0  0  0  0
    8.0367   18.0361   16.3567 C   0  0  0  0  0  0  0  0  0  0  0  0
    7.1439   17.4266   17.1778 C   0  0  0  0  0  0  0  0  0  0  0  0
    6.5196   18.1069   18.2124 C   0  0  0  0  0  0  0  0  0  0  0  0
    6.8508   19.4392   18.3666 C   0  0  0  0  0  0  0  0  0  0  0  0
    5.9231   23.3390   26.9415 N   0  0  0  0  0  0  0  0  0  0  0  0
    6.1949   24.1757   29.1579 N   0  0  0  0  0  0  0  0  0  0  0  0
    6.3326   23.0554   29.8173 N   0  0  0  0  0  0  0  0  0  0  0  0
    5.0621   25.4267   27.3819 N   0  0  0  0  0  0  0  0  0  0  0  0
    5.0461   24.0318   22.7210 N   0  0  0  0  0  0  0  0  0  0  0  0
    3.2175   25.0560   23.5652 O   0  0  0  0  0  0  0  0  0  0  0  0
    3.9857   26.6176   25.7632 O   0  0  0  0  0  0  0  0  0  0  0  0
    8.0042   21.4004   17.7985 O   0  0  0  0  0  0  0  0  0  0  0  0
  1  2  1  0
 26  1  1  0
  1 27  2  0
  2  3  2  0
  2  8  1  0
  3 22  1  0
 22  4  2  0
  4 23  1  0
 25  4  1  0
  6  5  1  0
  5 24  2  0
  7  6  2  0
 23  7  1  0
  8 25  1  0
  8 28  2  0
 10  9  1  0
  9 26  1  0
 11 10  2  0
 13 10  1  0
 12 11  1  0
 15 12  2  0
 14 13  2  0
 15 14  1  0
 29 15  1  0
 16 17  2  0
 16 21  1  0
 16 29  1  0
 17 18  1  0
 18 19  2  0
 19 20  1  0
 20 21  2  0
 23 24  1  0
M  END
$$$$
