
     RDKit          3D

 29 32  0  0  0  0  0  0  0  0999 V2000
    5.0146   24.1350   23.9154 C   0  0  0  0  0  0  0  0  0  0  0  0
    5.0481   24.3661   25.3454 C   0  0  0  0  0  0  0  0  0  0  0  0
    5.7612   23.4751   26.1571 C   0  0  0  0  0  0  0  0  0  0  0  0
    5.2297   24.6111   28.1000 C   0  0  0  0  0  0  0  0  0  0  0  0
    6.0041   24.3398   31.5948 C   0  0  0  0  0  0  0  0  0  0  0  0
    4.9307   25.1845   31.6282 C   0  0  0  0  0  0  0  0  0  0  0  0
    4.5287   25.3838   30.3225 C   0  0  0  0  0  0  0  0  0  0  0  0
    4.4233   25.3986   26.0000 C   0  0  0  0  0  0  0  0  0  0  0  0
    5.3441   22.7776   21.8287 C   0  0  0  0  0  0  0  0  0  0  0  0
    5.9535   21.4683   21.5238 C   0  0  0  0  0  0  0  0  0  0  0  0
    5.2120   20.3223   21.3051 C   0  0  0  0  0  0  0  0  0  0  0  0
    5.8396   19.1213   21.0338 C   0  0  0  0  0  0  0  0  0  0  0  0
    7.3297   21.3558   21.4561 C   0  0  0  0  0  0  0  0  0  0  0  0
    7.9605   20.1536   21.1854 C   0  0  0  0  0  0  0  0  0  0  0  0
    7.2033   19.0272   20.9730 C   0  0  0  0  0  0  0  0  0  0  0  0
    7.9719   16.9233   21.7469 C   0  0  0  0  0  0  0  0  0  0  0  0
    9.0425   16.0753   21.8289 C   0  0  0  0  0  0  0  0  0  0  0  0
    9.1308   15.2217   22.9317 C   0  0  0  0  0  0  0  0  0  0  0  0
    8.1762   15.2395   23.8967 C   0  0  0  0  0  0  0  0  0  0  0  0
    7.0855   16.0934   23.8302 C   0  0  0  0  0  0  0  0  0  0  0  0
    7.0173   16.9268   22.7307 C   0  0  0  0  0  0  0  0  0  0  0  0
    5.8463   23.5919   27.4624 N   0  0  0  0  0  0  0  0  0  0  0  0
    5.3465   24.6732   29.5282 N   0  0  0  0  0  0  0  0  0  0  0  0
    6.2184   24.0575   30.2830 N   0  0  0  0  0  0  0  0  0  0  0  0
    4.5397   25.4830   27.3612 N   0  0  0  0  0  0  0  0  0  0  0  0
    5.6874   23.1492   23.1966 N   0  0  0  0  0  0  0  0  0  0  0  0
    4.2857   24.9214   23.2048 O   0  0  0  0  0  0  0  0  0  0  0  0
    3.7538   26.2611   25.3678 O   0  0  0  0  0  0  0  0  0  0  0  0
    7.8004   17.8000   20.7000 O   0  0  0  0  0  0  0  0  0  0  0  0
  1  2  1  0
 26  1  1  0
  1 27  2  0
  2  3  2  0
  2  8  1  0
  3 22  1  0
 22  4  2  0
  4 23  1  0
 25  4  1  0
  6  5  1  0
  5 24  2  0
  7  6  2  0
 23  7  1  0
  8 25  1  0
  8 28  2  0
 10  9  1  0
  9 26  1  0
 11 10  2  0
 13 10  1  0
 12 11  1  0
 15 12  2  0
 14 13  2  0
 15 14  1  0
 29 15  1  0
 16 17  2  0
 16 21  1  0
 16 29  1  0
 17 18  1  0
 18 19  2  0
 19 20  1  0
 20 21  2  0
 23 24  1  0
M  END
$$$$
