
     RDKit          3D

 29 32  0  0  0  0  0  0  0  0999 V2000
    4.1991   24.2801   24.2330 C   0  0  0  0  0  0  0  0  0  0  0  0
    5.0582   24.0398   25.3748 C   0  0  0  0  0  0  0  0  0  0  0  0
    5.7116   22.8057   25.4805 C   0  0  0  0  0  0  0  0  0  0  0  0
    6.7308   23.3660   27.4793 C   0  0  0  0  0  0  0  0  0  0  0  0
    8.8225   22.9393   30.3654 C   0  0  0  0  0  0  0  0  0  0  0  0
    8.9264   21.7087   29.7812 C   0  0  0  0  0  0  0  0  0  0  0  0
    8.1484   21.7323   28.6408 C   0  0  0  0  0  0  0  0  0  0  0  0
    5.2927   24.9274   26.3956 C   0  0  0  0  0  0  0  0  0  0  0  0
    3.5925   25.1200   21.9456 C   0  0  0  0  0  0  0  0  0  0  0  0
    4.3241   25.5681   20.7445 C   0  0  0  0  0  0  0  0  0  0  0  0
    3.7839   25.5300   19.4726 C   0  0  0  0  0  0  0  0  0  0  0  0
    4.5218   25.9538   18.3837 C   0  0  0  0  0  0  0  0  0  0  0  0
    5.6154   26.0454   20.8711 C   0  0  0  0  0  0  0  0  0  0  0  0
    6.3567   26.4695   19.7815 C   0  0  0  0  0  0  0  0  0  0  0  0
    5.7999   26.4210   18.5265 C   0  0  0  0  0  0  0  0  0  0  0  0
    7.4945   26.0003   16.9243 C   0  0  0  0  0  0  0  0  0  0  0  0
    7.8785   25.9965   15.6111 C   0  0  0  0  0  0  0  0  0  0  0  0
    8.8851   25.1116   15.2160 C   0  0  0  0  0  0  0  0  0  0  0  0
    9.4662   24.2798   16.1178 C   0  0  0  0  0  0  0  0  0  0  0  0
    9.0903   24.2715   17.4526 C   0  0  0  0  0  0  0  0  0  0  0  0
    8.0922   25.1528   17.8207 C   0  0  0  0  0  0  0  0  0  0  0  0
    6.5038   22.4873   26.4784 N   0  0  0  0  0  0  0  0  0  0  0  0
    7.5921   22.9517   28.5487 N   0  0  0  0  0  0  0  0  0  0  0  0
    7.9917   23.6630   29.5701 N   0  0  0  0  0  0  0  0  0  0  0  0
    6.1266   24.5546   27.4150 N   0  0  0  0  0  0  0  0  0  0  0  0
    4.5562   24.8144   22.9968 N   0  0  0  0  0  0  0  0  0  0  0  0
    2.9556   23.9735   24.3518 O   0  0  0  0  0  0  0  0  0  0  0  0
    4.7566   26.0696   26.4024 O   0  0  0  0  0  0  0  0  0  0  0  0
    6.5135   26.8367   17.4063 O   0  0  0  0  0  0  0  0  0  0  0  0
  1  2  1  0
 26  1  1  0
  1 27  2  0
  2  3  2  0
  2  8  1  0
  3 22  1  0
 22  4  2  0
  4 23  1  0
 25  4  1  0
  6  5  1  0
  5 24  2  0
  7  6  2  0
 23  7  1  0
  8 25  1  0
  8 28  2  0
 10  9  1  0
  9 26  1  0
 11 10  2  0
 13 10  1  0
 12 11  1  0
 15 12  2  0
 14 13  2  0
 15 14  1  0
 29 15  1  0
 16 17  2  0
 16 21  1  0
 16 29  1  0
 17 18  1  0
 18 19  2  0
 19 20  1  0
 20 21  2  0
 23 24  1  0
M  END
$$$$
