
     RDKit          3D

 29 32  0  0  0  0  0  0  0  0999 V2000
    5.9403   23.0196   24.6704 C   0  0  0  0  0  0  0  0  0  0  0  0
    5.9135   23.4203   26.0626 C   0  0  0  0  0  0  0  0  0  0  0  0
    6.9543   23.0084   26.9042 C   0  0  0  0  0  0  0  0  0  0  0  0
    6.0515   24.0592   28.7558 C   0  0  0  0  0  0  0  0  0  0  0  0
    6.9813   24.6466   32.1730 C   0  0  0  0  0  0  0  0  0  0  0  0
    5.6256   24.8034   32.2388 C   0  0  0  0  0  0  0  0  0  0  0  0
    5.1309   24.6079   30.9648 C   0  0  0  0  0  0  0  0  0  0  0  0
    4.9340   24.1790   26.6541 C   0  0  0  0  0  0  0  0  0  0  0  0
    4.9973   22.2439   22.4762 C   0  0  0  0  0  0  0  0  0  0  0  0
    5.6217   20.9072   22.4316 C   0  0  0  0  0  0  0  0  0  0  0  0
    6.6484   20.5813   21.5653 C   0  0  0  0  0  0  0  0  0  0  0  0
    7.1868   19.3085   21.5621 C   0  0  0  0  0  0  0  0  0  0  0  0
    5.1701   19.9149   23.2816 C   0  0  0  0  0  0  0  0  0  0  0  0
    5.7073   18.6390   23.2795 C   0  0  0  0  0  0  0  0  0  0  0  0
    6.7260   18.3373   22.4085 C   0  0  0  0  0  0  0  0  0  0  0  0
    7.6033   16.4711   23.5762 C   0  0  0  0  0  0  0  0  0  0  0  0
    8.3959   17.0764   24.5130 C   0  0  0  0  0  0  0  0  0  0  0  0
    8.6563   16.3937   25.7040 C   0  0  0  0  0  0  0  0  0  0  0  0
    8.1310   15.1611   25.9222 C   0  0  0  0  0  0  0  0  0  0  0  0
    7.3247   14.5337   24.9845 C   0  0  0  0  0  0  0  0  0  0  0  0
    7.0821   15.2258   23.8138 C   0  0  0  0  0  0  0  0  0  0  0  0
    7.0186   23.3114   28.1804 N   0  0  0  0  0  0  0  0  0  0  0  0
    6.1708   24.3411   30.1571 N   0  0  0  0  0  0  0  0  0  0  0  0
    7.2637   24.3654   30.8739 N   0  0  0  0  0  0  0  0  0  0  0  0
    5.0417   24.4725   27.9867 N   0  0  0  0  0  0  0  0  0  0  0  0
    4.8608   22.6532   23.8694 N   0  0  0  0  0  0  0  0  0  0  0  0
    7.0848   22.9895   24.0841 O   0  0  0  0  0  0  0  0  0  0  0  0
    3.9496   24.6054   25.9901 O   0  0  0  0  0  0  0  0  0  0  0  0
    7.2909   17.0658   22.3750 O   0  0  0  0  0  0  0  0  0  0  0  0
  1  2  1  0
 26  1  1  0
  1 27  2  0
  2  3  2  0
  2  8  1  0
  3 22  1  0
 22  4  2  0
  4 23  1  0
 25  4  1  0
  6  5  1  0
  5 24  2  0
  7  6  2  0
 23  7  1  0
  8 25  1  0
  8 28  2  0
 10  9  1  0
  9 26  1  0
 11 10  2  0
 13 10  1  0
 12 11  1  0
 15 12  2  0
 14 13  2  0
 15 14  1  0
 29 15  1  0
 16 17  2  0
 16 21  1  0
 16 29  1  0
 17 18  1  0
 18 19  2  0
 19 20  1  0
 20 21  2  0
 23 24  1  0
M  END
$$$$
