
     RDKit          3D

 29 32  0  0  0  0  0  0  0  0999 V2000
    3.6482   24.6004   23.9813 C   0  0  0  0  0  0  0  0  0  0  0  0
    4.4054   24.2101   25.1534 C   0  0  0  0  0  0  0  0  0  0  0  0
    4.9976   22.9414   25.1834 C   0  0  0  0  0  0  0  0  0  0  0  0
    5.8806   23.2570   27.2973 C   0  0  0  0  0  0  0  0  0  0  0  0
    7.6369   21.2930   29.7355 C   0  0  0  0  0  0  0  0  0  0  0  0
    7.8037   22.5510   30.2417 C   0  0  0  0  0  0  0  0  0  0  0  0
    7.1704   23.4241   29.3797 C   0  0  0  0  0  0  0  0  0  0  0  0
    4.5961   24.9831   26.2719 C   0  0  0  0  0  0  0  0  0  0  0  0
    3.2250   24.8316   21.5170 C   0  0  0  0  0  0  0  0  0  0  0  0
    4.0100   24.5854   20.2916 C   0  0  0  0  0  0  0  0  0  0  0  0
    3.4592   24.6087   19.0239 C   0  0  0  0  0  0  0  0  0  0  0  0
    4.2431   24.3598   17.9133 C   0  0  0  0  0  0  0  0  0  0  0  0
    5.3607   24.3083   20.3911 C   0  0  0  0  0  0  0  0  0  0  0  0
    6.1477   24.0577   19.2800 C   0  0  0  0  0  0  0  0  0  0  0  0
    5.5783   24.0845   18.0301 C   0  0  0  0  0  0  0  0  0  0  0  0
    6.4706   24.8558   15.9746 C   0  0  0  0  0  0  0  0  0  0  0  0
    6.1282   26.1496   16.2590 C   0  0  0  0  0  0  0  0  0  0  0  0
    6.3025   27.1165   15.2655 C   0  0  0  0  0  0  0  0  0  0  0  0
    6.8022   26.7755   14.0502 C   0  0  0  0  0  0  0  0  0  0  0  0
    7.1558   25.4696   13.7456 C   0  0  0  0  0  0  0  0  0  0  0  0
    6.9732   24.5299   14.7417 C   0  0  0  0  0  0  0  0  0  0  0  0
    5.6962   22.4906   26.2000 N   0  0  0  0  0  0  0  0  0  0  0  0
    6.6386   22.7006   28.3804 N   0  0  0  0  0  0  0  0  0  0  0  0
    6.9166   21.4411   28.5928 N   0  0  0  0  0  0  0  0  0  0  0  0
    5.3323   24.4741   27.3076 N   0  0  0  0  0  0  0  0  0  0  0  0
    4.1088   24.7213   22.6720 N   0  0  0  0  0  0  0  0  0  0  0  0
    2.4020   24.8740   24.1447 O   0  0  0  0  0  0  0  0  0  0  0  0
    4.1084   26.1439   26.3531 O   0  0  0  0  0  0  0  0  0  0  0  0
    6.3356   23.8362   16.8891 O   0  0  0  0  0  0  0  0  0  0  0  0
  1  2  1  0
 26  1  1  0
  1 27  2  0
  2  3  2  0
  2  8  1  0
  3 22  1  0
 22  4  2  0
  4 23  1  0
 25  4  1  0
  6  5  1  0
  5 24  2  0
  7  6  2  0
 23  7  1  0
  8 25  1  0
  8 28  2  0
 10  9  1  0
  9 26  1  0
 11 10  2  0
 13 10  1  0
 12 11  1  0
 15 12  2  0
 14 13  2  0
 15 14  1  0
 29 15  1  0
 16 17  2  0
 16 21  1  0
 16 29  1  0
 17 18  1  0
 18 19  2  0
 19 20  1  0
 20 21  2  0
 23 24  1  0
M  END
$$$$
