
     RDKit          3D

 29 32  0  0  0  0  0  0  0  0999 V2000
    4.9113   24.1508   23.9221 C   0  0  0  0  0  0  0  0  0  0  0  0
    5.3078   24.2199   25.3140 C   0  0  0  0  0  0  0  0  0  0  0  0
    6.3560   23.4047   25.7589 C   0  0  0  0  0  0  0  0  0  0  0  0
    6.2150   24.1818   27.9324 C   0  0  0  0  0  0  0  0  0  0  0  0
    7.8034   23.4716   31.0724 C   0  0  0  0  0  0  0  0  0  0  0  0
    7.0037   24.5251   31.4147 C   0  0  0  0  0  0  0  0  0  0  0  0
    6.3275   24.9104   30.2743 C   0  0  0  0  0  0  0  0  0  0  0  0
    4.7328   25.0239   26.2667 C   0  0  0  0  0  0  0  0  0  0  0  0
    4.6008   23.0028   21.7104 C   0  0  0  0  0  0  0  0  0  0  0  0
    5.3631   21.8397   21.2156 C   0  0  0  0  0  0  0  0  0  0  0  0
    5.5724   21.5896   19.8722 C   0  0  0  0  0  0  0  0  0  0  0  0
    6.2862   20.4773   19.4683 C   0  0  0  0  0  0  0  0  0  0  0  0
    5.8961   20.9392   22.1189 C   0  0  0  0  0  0  0  0  0  0  0  0
    6.6106   19.8238   21.7165 C   0  0  0  0  0  0  0  0  0  0  0  0
    6.8048   19.5945   20.3759 C   0  0  0  0  0  0  0  0  0  0  0  0
    7.1799   17.2559   20.4553 C   0  0  0  0  0  0  0  0  0  0  0  0
    8.1042   16.4165   21.0149 C   0  0  0  0  0  0  0  0  0  0  0  0
    7.6669   15.1900   21.5215 C   0  0  0  0  0  0  0  0  0  0  0  0
    6.3551   14.8458   21.4599 C   0  0  0  0  0  0  0  0  0  0  0  0
    5.4049   15.6849   20.8978 C   0  0  0  0  0  0  0  0  0  0  0  0
    5.8597   16.8912   20.4014 C   0  0  0  0  0  0  0  0  0  0  0  0
    6.7849   23.3871   27.0000 N   0  0  0  0  0  0  0  0  0  0  0  0
    6.7175   24.1034   29.2735 N   0  0  0  0  0  0  0  0  0  0  0  0
    7.5907   23.2542   29.7480 N   0  0  0  0  0  0  0  0  0  0  0  0
    5.2123   24.9747   27.5479 N   0  0  0  0  0  0  0  0  0  0  0  0
    4.6465   23.0094   23.1682 N   0  0  0  0  0  0  0  0  0  0  0  0
    4.7839   25.2616   23.2862 O   0  0  0  0  0  0  0  0  0  0  0  0
    3.7810   25.7998   25.9770 O   0  0  0  0  0  0  0  0  0  0  0  0
    7.5159   18.4836   19.9318 O   0  0  0  0  0  0  0  0  0  0  0  0
  1  2  1  0
 26  1  1  0
  1 27  2  0
  2  3  2  0
  2  8  1  0
  3 22  1  0
 22  4  2  0
  4 23  1  0
 25  4  1  0
  6  5  1  0
  5 24  2  0
  7  6  2  0
 23  7  1  0
  8 25  1  0
  8 28  2  0
 10  9  1  0
  9 26  1  0
 11 10  2  0
 13 10  1  0
 12 11  1  0
 15 12  2  0
 14 13  2  0
 15 14  1  0
 29 15  1  0
 16 17  2  0
 16 21  1  0
 16 29  1  0
 17 18  1  0
 18 19  2  0
 19 20  1  0
 20 21  2  0
 23 24  1  0
M  END
$$$$
