
     RDKit          3D

 29 32  0  0  0  0  0  0  0  0999 V2000
    5.6235   23.9424   27.3666 C   0  0  0  0  0  0  0  0  0  0  0  0
    4.7232   22.9673   26.7851 C   0  0  0  0  0  0  0  0  0  0  0  0
    4.5581   21.7335   27.4266 C   0  0  0  0  0  0  0  0  0  0  0  0
    3.0664   20.9571   25.8391 C   0  0  0  0  0  0  0  0  0  0  0  0
    0.9418   18.1050   25.3512 C   0  0  0  0  0  0  0  0  0  0  0  0
    1.1987   18.4656   24.0587 C   0  0  0  0  0  0  0  0  0  0  0  0
    2.0162   19.5774   24.1009 C   0  0  0  0  0  0  0  0  0  0  0  0
    4.0031   23.1387   25.6289 C   0  0  0  0  0  0  0  0  0  0  0  0
    7.4085   24.6869   28.9682 C   0  0  0  0  0  0  0  0  0  0  0  0
    8.5924   24.0793   29.6070 C   0  0  0  0  0  0  0  0  0  0  0  0
    9.3558   24.7307   30.5577 C   0  0  0  0  0  0  0  0  0  0  0  0
   10.4607   24.1141   31.1135 C   0  0  0  0  0  0  0  0  0  0  0  0
    8.9806   22.8019   29.2483 C   0  0  0  0  0  0  0  0  0  0  0  0
   10.0876   22.1827   29.8031 C   0  0  0  0  0  0  0  0  0  0  0  0
   10.8325   22.8500   30.7450 C   0  0  0  0  0  0  0  0  0  0  0  0
   12.8509   21.6343   30.4914 C   0  0  0  0  0  0  0  0  0  0  0  0
   13.4553   22.2748   29.4442 C   0  0  0  0  0  0  0  0  0  0  0  0
   14.3544   21.5538   28.6543 C   0  0  0  0  0  0  0  0  0  0  0  0
   14.6203   20.2504   28.9254 C   0  0  0  0  0  0  0  0  0  0  0  0
   14.0180   19.5863   29.9834 C   0  0  0  0  0  0  0  0  0  0  0  0
   13.1312   20.3176   30.7496 C   0  0  0  0  0  0  0  0  0  0  0  0
    3.7730   20.7814   26.9773 N   0  0  0  0  0  0  0  0  0  0  0  0
    2.2405   19.8730   25.3921 N   0  0  0  0  0  0  0  0  0  0  0  0
    1.6034   19.0014   26.1292 N   0  0  0  0  0  0  0  0  0  0  0  0
    3.1959   22.1207   25.1978 N   0  0  0  0  0  0  0  0  0  0  0  0
    6.7872   23.6992   28.0932 N   0  0  0  0  0  0  0  0  0  0  0  0
    5.3339   25.1855   27.2077 O   0  0  0  0  0  0  0  0  0  0  0  0
    4.0744   24.2119   24.9694 O   0  0  0  0  0  0  0  0  0  0  0  0
   11.9530   22.2620   31.3244 O   0  0  0  0  0  0  0  0  0  0  0  0
  1  2  1  0
 26  1  1  0
  1 27  2  0
  2  3  2  0
  2  8  1  0
  3 22  1  0
 22  4  2  0
  4 23  1  0
 25  4  1  0
  6  5  1  0
  5 24  2  0
  7  6  2  0
 23  7  1  0
  8 25  1  0
  8 28  2  0
 10  9  1  0
  9 26  1  0
 11 10  2  0
 13 10  1  0
 12 11  1  0
 15 12  2  0
 14 13  2  0
 15 14  1  0
 29 15  1  0
 16 17  2  0
 16 21  1  0
 16 29  1  0
 17 18  1  0
 18 19  2  0
 19 20  1  0
 20 21  2  0
 23 24  1  0
M  END
$$$$
