
     RDKit          3D

 29 32  0  0  0  0  0  0  0  0999 V2000
    4.9255   22.6637   26.1138 C   0  0  0  0  0  0  0  0  0  0  0  0
    4.8481   23.5278   24.9533 C   0  0  0  0  0  0  0  0  0  0  0  0
    4.4269   24.8524   25.1243 C   0  0  0  0  0  0  0  0  0  0  0  0
    4.6138   25.3429   22.8721 C   0  0  0  0  0  0  0  0  0  0  0  0
    3.9356   28.1520   20.7423 C   0  0  0  0  0  0  0  0  0  0  0  0
    4.4874   27.2745   19.8523 C   0  0  0  0  0  0  0  0  0  0  0  0
    4.8082   26.1299   20.5546 C   0  0  0  0  0  0  0  0  0  0  0  0
    5.1482   23.1597   23.6651 C   0  0  0  0  0  0  0  0  0  0  0  0
    5.9549   21.8926   28.2705 C   0  0  0  0  0  0  0  0  0  0  0  0
    7.2985   22.2230   28.7843 C   0  0  0  0  0  0  0  0  0  0  0  0
    8.0345   23.3036   28.3354 C   0  0  0  0  0  0  0  0  0  0  0  0
    9.2930   23.5570   28.8471 C   0  0  0  0  0  0  0  0  0  0  0  0
    7.8728   21.4241   29.7555 C   0  0  0  0  0  0  0  0  0  0  0  0
    9.1337   21.6755   30.2688 C   0  0  0  0  0  0  0  0  0  0  0  0
    9.8476   22.7543   29.8064 C   0  0  0  0  0  0  0  0  0  0  0  0
   11.2914   23.0536   31.6615 C   0  0  0  0  0  0  0  0  0  0  0  0
   10.2399   23.0976   32.5359 C   0  0  0  0  0  0  0  0  0  0  0  0
   10.5151   23.1078   33.9058 C   0  0  0  0  0  0  0  0  0  0  0  0
   11.7964   23.0723   34.3528 C   0  0  0  0  0  0  0  0  0  0  0  0
   12.8738   23.0261   33.4809 C   0  0  0  0  0  0  0  0  0  0  0  0
   12.5786   23.0188   32.1314 C   0  0  0  0  0  0  0  0  0  0  0  0
    4.3159   25.7116   24.1373 N   0  0  0  0  0  0  0  0  0  0  0  0
    4.4555   26.3226   21.8365 N   0  0  0  0  0  0  0  0  0  0  0  0
    3.9406   27.5192   21.9449 N   0  0  0  0  0  0  0  0  0  0  0  0
    5.0199   24.0878   22.6672 N   0  0  0  0  0  0  0  0  0  0  0  0
    5.5402   22.9319   27.3350 N   0  0  0  0  0  0  0  0  0  0  0  0
    4.3697   21.5068   26.0296 O   0  0  0  0  0  0  0  0  0  0  0  0
    5.5386   21.9907   23.3953 O   0  0  0  0  0  0  0  0  0  0  0  0
   11.1188   23.0391   30.2962 O   0  0  0  0  0  0  0  0  0  0  0  0
  1  2  1  0
 26  1  1  0
  1 27  2  0
  2  3  2  0
  2  8  1  0
  3 22  1  0
 22  4  2  0
  4 23  1  0
 25  4  1  0
  6  5  1  0
  5 24  2  0
  7  6  2  0
 23  7  1  0
  8 25  1  0
  8 28  2  0
 10  9  1  0
  9 26  1  0
 11 10  2  0
 13 10  1  0
 12 11  1  0
 15 12  2  0
 14 13  2  0
 15 14  1  0
 29 15  1  0
 16 17  2  0
 16 21  1  0
 16 29  1  0
 17 18  1  0
 18 19  2  0
 19 20  1  0
 20 21  2  0
 23 24  1  0
M  END
$$$$
