
     RDKit          3D

 29 32  0  0  0  0  0  0  0  0999 V2000
    5.2473   22.8330   23.7997 C   0  0  0  0  0  0  0  0  0  0  0  0
    4.8302   24.1139   23.2660 C   0  0  0  0  0  0  0  0  0  0  0  0
    4.4922   25.1394   24.1577 C   0  0  0  0  0  0  0  0  0  0  0  0
    3.9935   26.6307   22.4621 C   0  0  0  0  0  0  0  0  0  0  0  0
    2.8393   29.6874   20.9752 C   0  0  0  0  0  0  0  0  0  0  0  0
    2.9784   30.0662   22.2805 C   0  0  0  0  0  0  0  0  0  0  0  0
    3.4186   28.9606   22.9806 C   0  0  0  0  0  0  0  0  0  0  0  0
    4.7233   24.4243   21.9329 C   0  0  0  0  0  0  0  0  0  0  0  0
    6.2033   21.2536   25.5018 C   0  0  0  0  0  0  0  0  0  0  0  0
    7.0992   21.3604   26.6699 C   0  0  0  0  0  0  0  0  0  0  0  0
    7.7258   20.2700   27.2437 C   0  0  0  0  0  0  0  0  0  0  0  0
    8.5462   20.4307   28.3441 C   0  0  0  0  0  0  0  0  0  0  0  0
    7.3322   22.5982   27.2397 C   0  0  0  0  0  0  0  0  0  0  0  0
    8.1530   22.7614   28.3426 C   0  0  0  0  0  0  0  0  0  0  0  0
    8.7640   21.6631   28.8973 C   0  0  0  0  0  0  0  0  0  0  0  0
    9.2350   21.1163   31.1545 C   0  0  0  0  0  0  0  0  0  0  0  0
    7.9680   20.6449   31.3651 C   0  0  0  0  0  0  0  0  0  0  0  0
    7.6986   19.9756   32.5617 C   0  0  0  0  0  0  0  0  0  0  0  0
    8.6748   19.7979   33.4882 C   0  0  0  0  0  0  0  0  0  0  0  0
    9.9645   20.2677   33.2905 C   0  0  0  0  0  0  0  0  0  0  0  0
   10.2078   20.9280   32.1018 C   0  0  0  0  0  0  0  0  0  0  0  0
    4.0955   26.3317   23.7757 N   0  0  0  0  0  0  0  0  0  0  0  0
    3.5381   27.9444   22.1100 N   0  0  0  0  0  0  0  0  0  0  0  0
    3.1942   28.3767   20.9252 N   0  0  0  0  0  0  0  0  0  0  0  0
    4.3074   25.6796   21.5795 N   0  0  0  0  0  0  0  0  0  0  0  0
    5.9576   22.5907   24.9735 N   0  0  0  0  0  0  0  0  0  0  0  0
    4.9380   21.7813   23.1267 O   0  0  0  0  0  0  0  0  0  0  0  0
    5.0035   23.5765   21.0416 O   0  0  0  0  0  0  0  0  0  0  0  0
    9.5946   21.7860   30.0072 O   0  0  0  0  0  0  0  0  0  0  0  0
  1  2  1  0
 26  1  1  0
  1 27  2  0
  2  3  2  0
  2  8  1  0
  3 22  1  0
 22  4  2  0
  4 23  1  0
 25  4  1  0
  6  5  1  0
  5 24  2  0
  7  6  2  0
 23  7  1  0
  8 25  1  0
  8 28  2  0
 10  9  1  0
  9 26  1  0
 11 10  2  0
 13 10  1  0
 12 11  1  0
 15 12  2  0
 14 13  2  0
 15 14  1  0
 29 15  1  0
 16 17  2  0
 16 21  1  0
 16 29  1  0
 17 18  1  0
 18 19  2  0
 19 20  1  0
 20 21  2  0
 23 24  1  0
M  END
$$$$
