
     RDKit          3D

 29 32  0  0  0  0  0  0  0  0999 V2000
    4.3455   24.7517   24.9296 C   0  0  0  0  0  0  0  0  0  0  0  0
    4.2860   25.1523   23.5384 C   0  0  0  0  0  0  0  0  0  0  0  0
    4.9625   24.3823   22.5842 C   0  0  0  0  0  0  0  0  0  0  0  0
    4.3169   25.7457   20.8315 C   0  0  0  0  0  0  0  0  0  0  0  0
    4.9952   26.0005   17.3156 C   0  0  0  0  0  0  0  0  0  0  0  0
    3.9593   26.8814   17.4479 C   0  0  0  0  0  0  0  0  0  0  0  0
    3.5878   26.8762   18.7776 C   0  0  0  0  0  0  0  0  0  0  0  0
    3.6185   26.2498   23.0538 C   0  0  0  0  0  0  0  0  0  0  0  0
    4.9950   23.3262   26.8922 C   0  0  0  0  0  0  0  0  0  0  0  0
    6.2432   22.6017   27.2015 C   0  0  0  0  0  0  0  0  0  0  0  0
    7.0837   22.0948   26.2280 C   0  0  0  0  0  0  0  0  0  0  0  0
    8.2348   21.4153   26.5789 C   0  0  0  0  0  0  0  0  0  0  0  0
    6.6065   22.4011   28.5202 C   0  0  0  0  0  0  0  0  0  0  0  0
    7.7587   21.7200   28.8740 C   0  0  0  0  0  0  0  0  0  0  0  0
    8.5781   21.2234   27.8894 C   0  0  0  0  0  0  0  0  0  0  0  0
   10.7120   21.1994   28.9197 C   0  0  0  0  0  0  0  0  0  0  0  0
   10.7777   22.5650   28.9724 C   0  0  0  0  0  0  0  0  0  0  0  0
   11.7970   23.1525   29.7262 C   0  0  0  0  0  0  0  0  0  0  0  0
   12.6961   22.3822   30.3904 C   0  0  0  0  0  0  0  0  0  0  0  0
   12.6435   20.9971   30.3492 C   0  0  0  0  0  0  0  0  0  0  0  0
   11.6291   20.4378   29.5965 C   0  0  0  0  0  0  0  0  0  0  0  0
    4.9768   24.6645   21.3017 N   0  0  0  0  0  0  0  0  0  0  0  0
    4.3855   26.0093   19.4232 N   0  0  0  0  0  0  0  0  0  0  0  0
    5.2162   25.4923   18.5563 N   0  0  0  0  0  0  0  0  0  0  0  0
    3.6587   26.5057   21.7097 N   0  0  0  0  0  0  0  0  0  0  0  0
    4.9656   23.6246   25.4649 N   0  0  0  0  0  0  0  0  0  0  0  0
    3.7627   25.5095   25.7902 O   0  0  0  0  0  0  0  0  0  0  0  0
    2.9743   27.0137   23.8241 O   0  0  0  0  0  0  0  0  0  0  0  0
    9.7439   20.5317   28.2049 O   0  0  0  0  0  0  0  0  0  0  0  0
  1  2  1  0
 26  1  1  0
  1 27  2  0
  2  3  2  0
  2  8  1  0
  3 22  1  0
 22  4  2  0
  4 23  1  0
 25  4  1  0
  6  5  1  0
  5 24  2  0
  7  6  2  0
 23  7  1  0
  8 25  1  0
  8 28  2  0
 10  9  1  0
  9 26  1  0
 11 10  2  0
 13 10  1  0
 12 11  1  0
 15 12  2  0
 14 13  2  0
 15 14  1  0
 29 15  1  0
 16 17  2  0
 16 21  1  0
 16 29  1  0
 17 18  1  0
 18 19  2  0
 19 20  1  0
 20 21  2  0
 23 24  1  0
M  END
$$$$
