
     RDKit          3D

 29 32  0  0  0  0  0  0  0  0999 V2000
    4.1716   24.2422   24.1695 C   0  0  0  0  0  0  0  0  0  0  0  0
    4.8472   23.8860   25.4008 C   0  0  0  0  0  0  0  0  0  0  0  0
    5.7555   22.8201   25.3889 C   0  0  0  0  0  0  0  0  0  0  0  0
    6.2346   23.0288   27.6416 C   0  0  0  0  0  0  0  0  0  0  0  0
    8.2069   21.2717   30.0725 C   0  0  0  0  0  0  0  0  0  0  0  0
    7.7912   22.3501   30.8011 C   0  0  0  0  0  0  0  0  0  0  0  0
    7.0135   23.1292   29.9678 C   0  0  0  0  0  0  0  0  0  0  0  0
    4.6710   24.5049   26.6136 C   0  0  0  0  0  0  0  0  0  0  0  0
    3.9110   24.5654   21.6930 C   0  0  0  0  0  0  0  0  0  0  0  0
    4.8041   24.5538   20.5180 C   0  0  0  0  0  0  0  0  0  0  0  0
    6.1310   24.9375   20.5736 C   0  0  0  0  0  0  0  0  0  0  0  0
    6.9163   24.9154   19.4366 C   0  0  0  0  0  0  0  0  0  0  0  0
    4.3112   24.1513   19.2907 C   0  0  0  0  0  0  0  0  0  0  0  0
    5.0958   24.1294   18.1503 C   0  0  0  0  0  0  0  0  0  0  0  0
    6.4116   24.5167   18.2290 C   0  0  0  0  0  0  0  0  0  0  0  0
    6.7820   25.1616   15.9789 C   0  0  0  0  0  0  0  0  0  0  0  0
    6.2681   26.4291   16.0181 C   0  0  0  0  0  0  0  0  0  0  0  0
    5.8378   27.0086   14.8217 C   0  0  0  0  0  0  0  0  0  0  0  0
    5.9321   26.3272   13.6514 C   0  0  0  0  0  0  0  0  0  0  0  0
    6.4517   25.0427   13.5933 C   0  0  0  0  0  0  0  0  0  0  0  0
    6.8689   24.4886   14.7879 C   0  0  0  0  0  0  0  0  0  0  0  0
    6.4122   22.4145   26.4514 N   0  0  0  0  0  0  0  0  0  0  0  0
    6.9681   22.5273   28.7676 N   0  0  0  0  0  0  0  0  0  0  0  0
    7.6752   21.4298   28.8320 N   0  0  0  0  0  0  0  0  0  0  0  0
    5.3770   24.0504   27.6946 N   0  0  0  0  0  0  0  0  0  0  0  0
    4.6829   24.1966   22.8743 N   0  0  0  0  0  0  0  0  0  0  0  0
    2.9560   24.6535   24.2580 O   0  0  0  0  0  0  0  0  0  0  0  0
    3.8773   25.4775   26.7399 O   0  0  0  0  0  0  0  0  0  0  0  0
    7.2318   24.5101   17.1046 O   0  0  0  0  0  0  0  0  0  0  0  0
  1  2  1  0
 26  1  1  0
  1 27  2  0
  2  3  2  0
  2  8  1  0
  3 22  1  0
 22  4  2  0
  4 23  1  0
 25  4  1  0
  6  5  1  0
  5 24  2  0
  7  6  2  0
 23  7  1  0
  8 25  1  0
  8 28  2  0
 10  9  1  0
  9 26  1  0
 11 10  2  0
 13 10  1  0
 12 11  1  0
 15 12  2  0
 14 13  2  0
 15 14  1  0
 29 15  1  0
 16 17  2  0
 16 21  1  0
 16 29  1  0
 17 18  1  0
 18 19  2  0
 19 20  1  0
 20 21  2  0
 23 24  1  0
M  END
$$$$
