
     RDKit          3D

 29 32  0  0  0  0  0  0  0  0999 V2000
    5.8971   22.9540   26.2368 C   0  0  0  0  0  0  0  0  0  0  0  0
    6.9248   23.2054   27.2268 C   0  0  0  0  0  0  0  0  0  0  0  0
    8.1242   22.4864   27.1528 C   0  0  0  0  0  0  0  0  0  0  0  0
    9.0125   23.5171   29.0227 C   0  0  0  0  0  0  0  0  0  0  0  0
   11.9843   23.2220   31.0147 C   0  0  0  0  0  0  0  0  0  0  0  0
   11.4171   24.3423   31.5531 C   0  0  0  0  0  0  0  0  0  0  0  0
   10.2463   24.5789   30.8607 C   0  0  0  0  0  0  0  0  0  0  0  0
    6.8294   24.0996   28.2642 C   0  0  0  0  0  0  0  0  0  0  0  0
    4.4764   21.5813   24.6867 C   0  0  0  0  0  0  0  0  0  0  0  0
    3.7003   20.3753   25.0357 C   0  0  0  0  0  0  0  0  0  0  0  0
    4.2680   19.2489   25.6014 C   0  0  0  0  0  0  0  0  0  0  0  0
    3.4915   18.1446   25.8970 C   0  0  0  0  0  0  0  0  0  0  0  0
    2.3407   20.3437   24.7874 C   0  0  0  0  0  0  0  0  0  0  0  0
    1.5612   19.2382   25.0819 C   0  0  0  0  0  0  0  0  0  0  0  0
    2.1473   18.1292   25.6422 C   0  0  0  0  0  0  0  0  0  0  0  0
    0.5570   17.0631   27.0386 C   0  0  0  0  0  0  0  0  0  0  0  0
    0.7737   17.9159   28.0864 C   0  0  0  0  0  0  0  0  0  0  0  0
   -0.1369   17.9108   29.1462 C   0  0  0  0  0  0  0  0  0  0  0  0
   -1.2102   17.0798   29.1303 C   0  0  0  0  0  0  0  0  0  0  0  0
   -1.4459   16.2104   28.0760 C   0  0  0  0  0  0  0  0  0  0  0  0
   -0.5321   16.2306   27.0402 C   0  0  0  0  0  0  0  0  0  0  0  0
    9.1128   22.6346   28.0045 N   0  0  0  0  0  0  0  0  0  0  0  0
   10.1197   23.6197   29.9286 N   0  0  0  0  0  0  0  0  0  0  0  0
   11.1491   22.8192   30.0214 N   0  0  0  0  0  0  0  0  0  0  0  0
    7.8843   24.2230   29.1276 N   0  0  0  0  0  0  0  0  0  0  0  0
    5.5623   21.7365   25.6480 N   0  0  0  0  0  0  0  0  0  0  0  0
    5.1997   23.9586   25.8381 O   0  0  0  0  0  0  0  0  0  0  0  0
    5.7938   24.8018   28.4264 O   0  0  0  0  0  0  0  0  0  0  0  0
    1.3977   16.9979   25.9510 O   0  0  0  0  0  0  0  0  0  0  0  0
  1  2  1  0
 26  1  1  0
  1 27  2  0
  2  3  2  0
  2  8  1  0
  3 22  1  0
 22  4  2  0
  4 23  1  0
 25  4  1  0
  6  5  1  0
  5 24  2  0
  7  6  2  0
 23  7  1  0
  8 25  1  0
  8 28  2  0
 10  9  1  0
  9 26  1  0
 11 10  2  0
 13 10  1  0
 12 11  1  0
 15 12  2  0
 14 13  2  0
 15 14  1  0
 29 15  1  0
 16 17  2  0
 16 21  1  0
 16 29  1  0
 17 18  1  0
 18 19  2  0
 19 20  1  0
 20 21  2  0
 23 24  1  0
M  END
$$$$
