
     RDKit          3D

 29 32  0  0  0  0  0  0  0  0999 V2000
    5.2634   22.5199   24.3217 C   0  0  0  0  0  0  0  0  0  0  0  0
    4.8344   23.5991   23.4551 C   0  0  0  0  0  0  0  0  0  0  0  0
    4.8999   23.4181   22.0680 C   0  0  0  0  0  0  0  0  0  0  0  0
    4.0810   25.5338   21.6194 C   0  0  0  0  0  0  0  0  0  0  0  0
    3.4375   27.5230   18.7013 C   0  0  0  0  0  0  0  0  0  0  0  0
    3.0040   28.3597   19.6905 C   0  0  0  0  0  0  0  0  0  0  0  0
    3.1909   27.7028   20.8904 C   0  0  0  0  0  0  0  0  0  0  0  0
    4.3651   24.8190   23.8753 C   0  0  0  0  0  0  0  0  0  0  0  0
    5.9366   21.4360   26.4844 C   0  0  0  0  0  0  0  0  0  0  0  0
    6.2412   21.8873   27.8563 C   0  0  0  0  0  0  0  0  0  0  0  0
    6.8264   23.1076   28.1379 C   0  0  0  0  0  0  0  0  0  0  0  0
    7.0976   23.4715   29.4432 C   0  0  0  0  0  0  0  0  0  0  0  0
    5.9435   21.0647   28.9268 C   0  0  0  0  0  0  0  0  0  0  0  0
    6.2151   21.4268   30.2351 C   0  0  0  0  0  0  0  0  0  0  0  0
    6.7987   22.6439   30.4910 C   0  0  0  0  0  0  0  0  0  0  0  0
    8.2227   22.5320   32.3819 C   0  0  0  0  0  0  0  0  0  0  0  0
    9.2132   21.9191   31.6641 C   0  0  0  0  0  0  0  0  0  0  0  0
   10.3280   21.4326   32.3518 C   0  0  0  0  0  0  0  0  0  0  0  0
   10.4221   21.5698   33.6991 C   0  0  0  0  0  0  0  0  0  0  0  0
    9.4284   22.1895   34.4419 C   0  0  0  0  0  0  0  0  0  0  0  0
    8.3347   22.6609   33.7420 C   0  0  0  0  0  0  0  0  0  0  0  0
    4.5429   24.3357   21.1990 N   0  0  0  0  0  0  0  0  0  0  0  0
    3.7239   26.4994   20.6207 N   0  0  0  0  0  0  0  0  0  0  0  0
    3.8678   26.3954   19.3256 N   0  0  0  0  0  0  0  0  0  0  0  0
    4.0028   25.7455   22.9352 N   0  0  0  0  0  0  0  0  0  0  0  0
    5.6426   22.6025   25.6598 N   0  0  0  0  0  0  0  0  0  0  0  0
    5.3089   21.3374   23.8177 O   0  0  0  0  0  0  0  0  0  0  0  0
    4.2631   25.0905   25.1032 O   0  0  0  0  0  0  0  0  0  0  0  0
    7.0890   23.0430   31.7923 O   0  0  0  0  0  0  0  0  0  0  0  0
  1  2  1  0
 26  1  1  0
  1 27  2  0
  2  3  2  0
  2  8  1  0
  3 22  1  0
 22  4  2  0
  4 23  1  0
 25  4  1  0
  6  5  1  0
  5 24  2  0
  7  6  2  0
 23  7  1  0
  8 25  1  0
  8 28  2  0
 10  9  1  0
  9 26  1  0
 11 10  2  0
 13 10  1  0
 12 11  1  0
 15 12  2  0
 14 13  2  0
 15 14  1  0
 29 15  1  0
 16 17  2  0
 16 21  1  0
 16 29  1  0
 17 18  1  0
 18 19  2  0
 19 20  1  0
 20 21  2  0
 23 24  1  0
M  END
$$$$
