
     RDKit          3D

 29 32  0  0  0  0  0  0  0  0999 V2000
    4.4872   24.7475   24.2293 C   0  0  0  0  0  0  0  0  0  0  0  0
    4.9236   24.4228   25.5723 C   0  0  0  0  0  0  0  0  0  0  0  0
    5.8866   23.4210   25.7459 C   0  0  0  0  0  0  0  0  0  0  0  0
    5.8861   23.6342   28.0486 C   0  0  0  0  0  0  0  0  0  0  0  0
    7.5205   22.0413   30.8196 C   0  0  0  0  0  0  0  0  0  0  0  0
    6.7361   22.9540   31.4664 C   0  0  0  0  0  0  0  0  0  0  0  0
    6.0444   23.6548   30.4986 C   0  0  0  0  0  0  0  0  0  0  0  0
    4.4643   25.0136   26.7234 C   0  0  0  0  0  0  0  0  0  0  0  0
    4.3261   24.4509   21.7410 C   0  0  0  0  0  0  0  0  0  0  0  0
    5.0142   23.6378   20.7193 C   0  0  0  0  0  0  0  0  0  0  0  0
    4.6951   23.6851   19.3751 C   0  0  0  0  0  0  0  0  0  0  0  0
    5.3681   22.8916   18.4656 C   0  0  0  0  0  0  0  0  0  0  0  0
    6.0242   22.7746   21.1013 C   0  0  0  0  0  0  0  0  0  0  0  0
    6.6990   21.9781   20.1920 C   0  0  0  0  0  0  0  0  0  0  0  0
    6.3636   22.0405   18.8613 C   0  0  0  0  0  0  0  0  0  0  0  0
    7.0879   21.7279   16.6266 C   0  0  0  0  0  0  0  0  0  0  0  0
    7.6366   22.9424   16.3171 C   0  0  0  0  0  0  0  0  0  0  0  0
    7.6641   23.3367   14.9769 C   0  0  0  0  0  0  0  0  0  0  0  0
    7.1596   22.5293   14.0092 C   0  0  0  0  0  0  0  0  0  0  0  0
    6.6013   21.2948   14.3049 C   0  0  0  0  0  0  0  0  0  0  0  0
    6.5828   20.9262   15.6361 C   0  0  0  0  0  0  0  0  0  0  0  0
    6.3418   23.0478   26.9199 N   0  0  0  0  0  0  0  0  0  0  0  0
    6.4103   23.1698   29.3004 N   0  0  0  0  0  0  0  0  0  0  0  0
    7.2837   22.2165   29.4931 N   0  0  0  0  0  0  0  0  0  0  0  0
    4.9674   24.5948   27.9255 N   0  0  0  0  0  0  0  0  0  0  0  0
    4.9768   24.2375   23.0287 N   0  0  0  0  0  0  0  0  0  0  0  0
    3.5380   25.6068   24.1059 O   0  0  0  0  0  0  0  0  0  0  0  0
    3.5966   25.9287   26.6851 O   0  0  0  0  0  0  0  0  0  0  0  0
    7.0175   21.2545   17.9170 O   0  0  0  0  0  0  0  0  0  0  0  0
  1  2  1  0
 26  1  1  0
  1 27  2  0
  2  3  2  0
  2  8  1  0
  3 22  1  0
 22  4  2  0
  4 23  1  0
 25  4  1  0
  6  5  1  0
  5 24  2  0
  7  6  2  0
 23  7  1  0
  8 25  1  0
  8 28  2  0
 10  9  1  0
  9 26  1  0
 11 10  2  0
 13 10  1  0
 12 11  1  0
 15 12  2  0
 14 13  2  0
 15 14  1  0
 29 15  1  0
 16 17  2  0
 16 21  1  0
 16 29  1  0
 17 18  1  0
 18 19  2  0
 19 20  1  0
 20 21  2  0
 23 24  1  0
M  END
$$$$
