
     RDKit          3D

 29 32  0  0  0  0  0  0  0  0999 V2000
    4.0658   24.2347   24.9905 C   0  0  0  0  0  0  0  0  0  0  0  0
    4.8528   23.6395   26.0515 C   0  0  0  0  0  0  0  0  0  0  0  0
    4.7883   24.1971   27.3345 C   0  0  0  0  0  0  0  0  0  0  0  0
    6.2840   22.6706   28.2180 C   0  0  0  0  0  0  0  0  0  0  0  0
    7.8276   22.0692   31.4027 C   0  0  0  0  0  0  0  0  0  0  0  0
    8.3908   21.0803   30.6467 C   0  0  0  0  0  0  0  0  0  0  0  0
    7.8683   21.1933   29.3738 C   0  0  0  0  0  0  0  0  0  0  0  0
    5.6853   22.5565   25.9138 C   0  0  0  0  0  0  0  0  0  0  0  0
    2.9609   24.3725   22.7397 C   0  0  0  0  0  0  0  0  0  0  0  0
    3.8046   24.5303   21.5389 C   0  0  0  0  0  0  0  0  0  0  0  0
    3.3393   25.0694   20.3541 C   0  0  0  0  0  0  0  0  0  0  0  0
    4.1742   25.1824   19.2586 C   0  0  0  0  0  0  0  0  0  0  0  0
    5.1242   24.1196   21.5737 C   0  0  0  0  0  0  0  0  0  0  0  0
    5.9620   24.2309   20.4773 C   0  0  0  0  0  0  0  0  0  0  0  0
    5.4773   24.7683   19.3096 C   0  0  0  0  0  0  0  0  0  0  0  0
    5.9513   25.8542   17.2572 C   0  0  0  0  0  0  0  0  0  0  0  0
    5.5926   25.5427   15.9741 C   0  0  0  0  0  0  0  0  0  0  0  0
    5.2662   26.5860   15.1038 C   0  0  0  0  0  0  0  0  0  0  0  0
    5.3032   27.8754   15.5271 C   0  0  0  0  0  0  0  0  0  0  0  0
    5.6630   28.2088   16.8242 C   0  0  0  0  0  0  0  0  0  0  0  0
    5.9836   27.1620   17.6667 C   0  0  0  0  0  0  0  0  0  0  0  0
    5.4672   23.7374   28.3604 N   0  0  0  0  0  0  0  0  0  0  0  0
    7.0110   22.2277   29.3723 N   0  0  0  0  0  0  0  0  0  0  0  0
    6.9883   22.7433   30.5734 N   0  0  0  0  0  0  0  0  0  0  0  0
    6.3728   22.1097   27.0099 N   0  0  0  0  0  0  0  0  0  0  0  0
    3.7261   23.6695   23.7632 N   0  0  0  0  0  0  0  0  0  0  0  0
    3.6186   25.4257   25.1807 O   0  0  0  0  0  0  0  0  0  0  0  0
    5.8195   21.9745   24.8024 O   0  0  0  0  0  0  0  0  0  0  0  0
    6.2878   24.8953   18.1853 O   0  0  0  0  0  0  0  0  0  0  0  0
  1  2  1  0
 26  1  1  0
  1 27  2  0
  2  3  2  0
  2  8  1  0
  3 22  1  0
 22  4  2  0
  4 23  1  0
 25  4  1  0
  6  5  1  0
  5 24  2  0
  7  6  2  0
 23  7  1  0
  8 25  1  0
  8 28  2  0
 10  9  1  0
  9 26  1  0
 11 10  2  0
 13 10  1  0
 12 11  1  0
 15 12  2  0
 14 13  2  0
 15 14  1  0
 29 15  1  0
 16 17  2  0
 16 21  1  0
 16 29  1  0
 17 18  1  0
 18 19  2  0
 19 20  1  0
 20 21  2  0
 23 24  1  0
M  END
$$$$
