
     RDKit          3D

 17 16  0  0  0  0  0  0  0  0999 V2000
   71.1625  107.4435  276.1021 C   0  0  0  0  0  0  0  0  0  0  0  0
   69.9041  107.2833  276.9521 C   0  0  0  0  0  0  0  0  0  0  0  0
   69.3092  108.6715  277.1403 C   0  0  0  0  0  0  0  0  0  0  0  0
   67.3152  109.7279  277.7609 C   0  0  0  0  0  0  0  0  0  0  0  0
   66.1734  109.4439  276.8003 C   0  0  0  0  0  0  0  0  0  0  0  0
   64.8709  109.8246  277.4501 C   0  0  0  0  0  0  0  0  0  0  0  0
   63.6806  109.4121  276.6553 C   0  0  0  0  0  0  0  0  0  0  0  0
   62.3886  110.0511  277.0182 C   0  0  0  0  0  0  0  0  0  0  0  0
   61.2083  109.6655  276.1943 C   0  0  1  0  0  0  0  0  0  0  0  0
   60.0193  110.5739  276.4533 C   0  0  1  0  0  0  0  0  0  0  0  0
   59.6094  110.5468  277.7535 F   0  0  0  0  0  0  0  0  0  0  0  0
   60.3826  111.8562  276.0704 F   0  0  0  0  0  0  0  0  0  0  0  0
   58.9608  110.1808  275.6573 F   0  0  0  0  0  0  0  0  0  0  0  0
   68.1167  108.5366  277.9406 N   0  0  0  0  0  4  0  0  0  0  0  0
   72.2990  106.8839  276.8357 N   0  0  0  0  0  4  0  0  0  0  0  0
   61.5183  109.8191  274.8251 O   0  0  0  0  0  0  0  0  0  0  0  0
   60.8984  108.3417  276.3871 O   0  0  0  0  0  0  0  0  0  0  0  0
  2  1  1  0
  1 15  1  0
  3  2  1  0
 14  3  1  0
  4  5  1  0
  4 14  1  0
  5  6  1  0
  6  7  1  0
  7  8  1  0
  8  9  1  0
  9 10  1  0
  9 16  1  6
  9 17  1  0
 10 11  1  1
 10 12  1  0
 10 13  1  0
M  CHG  2  14   1  15   1
M  END
$$$$
