
     RDKit          3D

 17 16  0  0  0  0  0  0  0  0999 V2000
   71.5746  108.0625  278.6549 C   0  0  0  0  0  0  0  0  0  0  0  0
   70.1712  107.5152  278.4053 C   0  0  0  0  0  0  0  0  0  0  0  0
   69.1903  108.6396  278.7059 C   0  0  0  0  0  0  0  0  0  0  0  0
   67.2198  109.0750  277.5206 C   0  0  0  0  0  0  0  0  0  0  0  0
   65.8510  108.5475  277.1267 C   0  0  0  0  0  0  0  0  0  0  0  0
   64.9099  109.7050  276.9306 C   0  0  0  0  0  0  0  0  0  0  0  0
   63.5987  109.2986  276.3525 C   0  0  0  0  0  0  0  0  0  0  0  0
   62.3848  109.7859  277.0582 C   0  0  0  0  0  0  0  0  0  0  0  0
   61.0762  109.4335  276.4385 C   0  0  1  0  0  0  0  0  0  0  0  0
   59.9827  110.4084  276.8381 C   0  0  1  0  0  0  0  0  0  0  0  0
   60.2506  111.6880  276.4506 F   0  0  0  0  0  0  0  0  0  0  0  0
   58.7961  109.9557  276.2814 F   0  0  0  0  0  0  0  0  0  0  0  0
   59.8358  110.3938  278.2117 F   0  0  0  0  0  0  0  0  0  0  0  0
   67.8609  108.1515  278.4318 N   0  0  0  0  0  4  0  0  0  0  0  0
   72.3773  107.8653  277.4467 N   0  0  0  0  0  4  0  0  0  0  0  0
   61.1795  109.5268  275.0331 O   0  0  0  0  0  0  0  0  0  0  0  0
   60.7406  108.1339  276.7284 O   0  0  0  0  0  0  0  0  0  0  0  0
  2  1  1  0
  1 15  1  0
  3  2  1  0
 14  3  1  0
  4  5  1  0
  4 14  1  0
  5  6  1  0
  6  7  1  0
  7  8  1  0
  8  9  1  0
  9 10  1  0
  9 16  1  6
  9 17  1  0
 10 11  1  6
 10 12  1  0
 10 13  1  0
M  CHG  2  14   1  15   1
M  END
$$$$
