
     RDKit          3D

 17 16  0  0  0  0  0  0  0  0999 V2000
   69.5969  107.0648  280.9345 C   0  0  0  0  0  0  0  0  0  0  0  0
   69.3360  108.2466  280.0034 C   0  0  0  0  0  0  0  0  0  0  0  0
   68.2588  107.8138  279.0191 C   0  0  0  0  0  0  0  0  0  0  0  0
   67.0827  108.4647  277.1031 C   0  0  0  0  0  0  0  0  0  0  0  0
   65.6714  108.7525  277.5852 C   0  0  0  0  0  0  0  0  0  0  0  0
   65.0171  109.7329  276.6501 C   0  0  0  0  0  0  0  0  0  0  0  0
   63.7400  109.2263  276.0749 C   0  0  0  0  0  0  0  0  0  0  0  0
   62.5005  109.5484  276.8294 C   0  0  0  0  0  0  0  0  0  0  0  0
   61.2134  109.2774  276.1289 C   0  0  1  0  0  0  0  0  0  0  0  0
   60.2314  110.4242  276.2909 C   0  0  1  0  0  0  0  0  0  0  0  0
   60.7552  111.6239  275.9088 F   0  0  0  0  0  0  0  0  0  0  0  0
   59.1012  110.1137  275.5499 F   0  0  0  0  0  0  0  0  0  0  0  0
   59.8530  110.5193  277.6161 F   0  0  0  0  0  0  0  0  0  0  0  0
   68.0416  108.9004  278.0956 N   0  0  0  0  0  4  0  0  0  0  0  0
   70.3222  107.5457  282.1116 N   0  0  0  0  0  4  0  0  0  0  0  0
   61.4466  109.1642  274.7407 O   0  0  0  0  0  0  0  0  0  0  0  0
   60.6825  108.0806  276.5432 O   0  0  0  0  0  0  0  0  0  0  0  0
  2  1  1  0
  1 15  1  0
  3  2  1  0
 14  3  1  0
  4  5  1  0
  4 14  1  0
  5  6  1  0
  6  7  1  0
  7  8  1  0
  8  9  1  0
  9 10  1  0
  9 16  1  6
  9 17  1  0
 10 11  1  6
 10 12  1  0
 10 13  1  0
M  CHG  2  14   1  15   1
M  END
$$$$
