
     RDKit          3D

 17 16  0  0  0  0  0  0  0  0999 V2000
   71.2888  107.6665  279.6771 C   0  0  0  0  0  0  0  0  0  0  0  0
   69.8723  107.3248  279.2205 C   0  0  0  0  0  0  0  0  0  0  0  0
   69.2152  108.6260  278.7826 C   0  0  0  0  0  0  0  0  0  0  0  0
   67.0454  109.3001  278.2214 C   0  0  0  0  0  0  0  0  0  0  0  0
   65.6645  108.7108  277.9912 C   0  0  0  0  0  0  0  0  0  0  0  0
   64.7923  109.7363  277.3193 C   0  0  0  0  0  0  0  0  0  0  0  0
   63.4123  109.2431  277.0529 C   0  0  0  0  0  0  0  0  0  0  0  0
   62.4858  110.1961  276.3875 C   0  0  0  0  0  0  0  0  0  0  0  0
   61.1331  109.6714  276.0475 C   0  0  1  0  0  0  0  0  0  0  0  0
   60.0302  110.5664  276.5845 C   0  0  1  0  0  0  0  0  0  0  0  0
   60.0187  110.6281  277.9467 F   0  0  0  0  0  0  0  0  0  0  0  0
   60.2058  111.8246  276.0287 F   0  0  0  0  0  0  0  0  0  0  0  0
   58.8052  110.0869  276.1625 F   0  0  0  0  0  0  0  0  0  0  0  0
   68.0570  108.2915  277.9905 N   0  0  0  0  0  4  0  0  0  0  0  0
   71.4453  107.2517  281.0723 N   0  0  0  0  0  4  0  0  0  0  0  0
   60.9704  109.6606  274.6447 O   0  0  0  0  0  0  0  0  0  0  0  0
   60.9988  108.3733  276.4747 O   0  0  0  0  0  0  0  0  0  0  0  0
  2  1  1  0
  1 15  1  0
  3  2  1  0
 14  3  1  0
  4  5  1  0
  4 14  1  0
  5  6  1  0
  6  7  1  0
  7  8  1  0
  8  9  1  0
  9 10  1  0
  9 16  1  6
  9 17  1  0
 10 11  1  1
 10 12  1  0
 10 13  1  0
M  CHG  2  14   1  15   1
M  END
$$$$
