
     RDKit          3D

 17 16  0  0  0  0  0  0  0  0999 V2000
   70.9486  107.3795  280.0462 C   0  0  0  0  0  0  0  0  0  0  0  0
   70.0296  108.5670  279.7689 C   0  0  0  0  0  0  0  0  0  0  0  0
   69.3979  108.3370  278.4034 C   0  0  0  0  0  0  0  0  0  0  0  0
   67.1995  108.9687  277.9079 C   0  0  0  0  0  0  0  0  0  0  0  0
   65.7289  108.7160  278.1914 C   0  0  0  0  0  0  0  0  0  0  0  0
   64.8986  109.7272  277.4485 C   0  0  0  0  0  0  0  0  0  0  0  0
   63.6072  109.1721  276.9559 C   0  0  0  0  0  0  0  0  0  0  0  0
   62.5614  110.1603  276.5828 C   0  0  0  0  0  0  0  0  0  0  0  0
   61.2709  109.6003  276.0913 C   0  0  1  0  0  0  0  0  0  0  0  0
   60.1248  110.5791  276.2769 C   0  0  1  0  0  0  0  0  0  0  0  0
   60.3754  111.7959  275.7148 F   0  0  0  0  0  0  0  0  0  0  0  0
   58.9892  110.0004  275.7306 F   0  0  0  0  0  0  0  0  0  0  0  0
   59.8951  110.7646  277.6265 F   0  0  0  0  0  0  0  0  0  0  0  0
   68.0112  107.9975  278.6095 N   0  0  0  0  0  4  0  0  0  0  0  0
   72.0645  107.8335  280.8778 N   0  0  0  0  0  4  0  0  0  0  0  0
   61.3566  109.3679  274.7009 O   0  0  0  0  0  0  0  0  0  0  0  0
   61.0156  108.3879  276.6834 O   0  0  0  0  0  0  0  0  0  0  0  0
  2  1  1  0
  1 15  1  0
  3  2  1  0
 14  3  1  0
  4  5  1  0
  4 14  1  0
  5  6  1  0
  6  7  1  0
  7  8  1  0
  8  9  1  0
  9 10  1  0
  9 16  1  6
  9 17  1  0
 10 11  1  6
 10 12  1  0
 10 13  1  0
M  CHG  2  14   1  15   1
M  END
$$$$
