
     RDKit          3D

 17 16  0  0  0  0  0  0  0  0999 V2000
   69.6235  107.3201  280.3129 C   0  0  0  0  0  0  0  0  0  0  0  0
   68.6125  108.1370  279.5117 C   0  0  0  0  0  0  0  0  0  0  0  0
   69.1056  108.1752  278.0722 C   0  0  0  0  0  0  0  0  0  0  0  0
   67.4969  109.8531  277.7996 C   0  0  0  0  0  0  0  0  0  0  0  0
   66.0135  109.7075  278.0919 C   0  0  0  0  0  0  0  0  0  0  0  0
   65.2315  109.9611  276.8317 C   0  0  0  0  0  0  0  0  0  0  0  0
   63.9013  109.2908  276.8264 C   0  0  0  0  0  0  0  0  0  0  0  0
   62.7205  110.1616  277.0641 C   0  0  0  0  0  0  0  0  0  0  0  0
   61.4053  109.6264  276.6119 C   0  0  1  0  0  0  0  0  0  0  0  0
   60.2593  110.5424  277.0041 C   0  0  1  0  0  0  0  0  0  0  0  0
   59.0608  110.1319  276.4995 F   0  0  0  0  0  0  0  0  0  0  0  0
   60.2254  110.5989  278.3892 F   0  0  0  0  0  0  0  0  0  0  0  0
   60.5119  111.8177  276.5367 F   0  0  0  0  0  0  0  0  0  0  0  0
   68.0132  108.6213  277.2425 N   0  0  0  0  0  4  0  0  0  0  0  0
   70.4117  108.2324  281.1434 N   0  0  0  0  0  4  0  0  0  0  0  0
   61.3814  109.5632  275.2013 O   0  0  0  0  0  0  0  0  0  0  0  0
   61.2229  108.3454  277.0718 O   0  0  0  0  0  0  0  0  0  0  0  0
  2  1  1  0
  1 15  1  0
  3  2  1  0
 14  3  1  0
  4  5  1  0
  4 14  1  0
  5  6  1  0
  6  7  1  0
  7  8  1  0
  8  9  1  0
  9 10  1  0
  9 16  1  6
  9 17  1  0
 10 11  1  6
 10 12  1  0
 10 13  1  0
M  CHG  2  14   1  15   1
M  END
$$$$
