
     RDKit          3D

 17 16  0  0  0  0  0  0  0  0999 V2000
   71.4174  108.0943  276.5443 C   0  0  0  0  0  0  0  0  0  0  0  0
   70.0770  108.7870  276.3101 C   0  0  0  0  0  0  0  0  0  0  0  0
   69.4609  109.0475  277.6773 C   0  0  0  0  0  0  0  0  0  0  0  0
   67.1372  108.9145  277.9226 C   0  0  0  0  0  0  0  0  0  0  0  0
   66.0490  108.8664  276.8641 C   0  0  0  0  0  0  0  0  0  0  0  0
   64.7755  109.4291  277.4346 C   0  0  0  0  0  0  0  0  0  0  0  0
   63.5934  109.2015  276.5575 C   0  0  0  0  0  0  0  0  0  0  0  0
   62.3253  109.8562  276.9728 C   0  0  0  0  0  0  0  0  0  0  0  0
   61.1428  109.6167  276.0982 C   0  0  1  0  0  0  0  0  0  0  0  0
   59.9975  110.5573  276.4291 C   0  0  1  0  0  0  0  0  0  0  0  0
   59.5290  110.3904  277.6987 F   0  0  0  0  0  0  0  0  0  0  0  0
   60.4504  111.8527  276.2298 F   0  0  0  0  0  0  0  0  0  0  0  0
   58.9548  110.3360  275.5502 F   0  0  0  0  0  0  0  0  0  0  0  0
   68.2231  109.7603  277.4758 N   0  0  0  0  0  4  0  0  0  0  0  0
   71.5378  106.9758  275.6076 N   0  0  0  0  0  4  0  0  0  0  0  0
   61.4866  109.8872  274.7554 O   0  0  0  0  0  0  0  0  0  0  0  0
   60.7613  108.2988  276.1547 O   0  0  0  0  0  0  0  0  0  0  0  0
  2  1  1  0
  1 15  1  0
  3  2  1  0
 14  3  1  0
  4  5  1  0
  4 14  1  0
  5  6  1  0
  6  7  1  0
  7  8  1  0
  8  9  1  0
  9 10  1  0
  9 16  1  6
  9 17  1  0
 10 11  1  1
 10 12  1  0
 10 13  1  0
M  CHG  2  14   1  15   1
M  END
$$$$
