
     RDKit          3D

 17 16  0  0  0  0  0  0  0  0999 V2000
   61.6273   71.7253  256.8664 C   0  0  0  0  0  0  0  0  0  0  0  0
   60.1872   72.1729  257.1057 C   0  0  0  0  0  0  0  0  0  0  0  0
   59.9627   73.4279  256.2744 C   0  0  0  0  0  0  0  0  0  0  0  0
   58.6150   75.3267  256.5101 C   0  0  0  0  0  0  0  0  0  0  0  0
   58.7624   75.8429  255.0892 C   0  0  0  0  0  0  0  0  0  0  0  0
   60.1460   76.4048  254.9056 C   0  0  0  0  0  0  0  0  0  0  0  0
   60.1434   77.8203  254.4421 C   0  0  0  0  0  0  0  0  0  0  0  0
   61.2670   78.6725  254.9118 C   0  0  0  0  0  0  0  0  0  0  0  0
   61.2878   80.0737  254.4051 C   0  0  1  0  0  0  0  0  0  0  0  0
   62.4946   80.3356  253.5213 C   0  0  1  0  0  0  0  0  0  0  0  0
   63.6759   80.1929  254.1874 F   0  0  0  0  0  0  0  0  0  0  0  0
   62.4198   79.4653  252.4443 F   0  0  0  0  0  0  0  0  0  0  0  0
   62.4291   81.6239  253.0269 F   0  0  0  0  0  0  0  0  0  0  0  0
   58.6134   73.8797  256.5117 N   0  0  0  0  0  4  0  0  0  0  0  0
   62.2153   71.3302  258.1474 N   0  0  0  0  0  4  0  0  0  0  0  0
   60.1575   80.2968  253.5883 O   0  0  0  0  0  0  0  0  0  0  0  0
   61.2085   80.9640  255.4477 O   0  0  0  0  0  0  0  0  0  0  0  0
  2  1  1  0
  1 15  1  0
  3  2  1  0
 14  3  1  0
  4  5  1  0
  4 14  1  0
  5  6  1  0
  6  7  1  0
  7  8  1  0
  8  9  1  0
  9 10  1  0
  9 16  1  6
  9 17  1  0
 10 11  1  1
 10 12  1  0
 10 13  1  0
M  CHG  2  14   1  15   1
M  END
$$$$
