
     RDKit          3D

 17 16  0  0  0  0  0  0  0  0999 V2000
   70.8380  107.3566  279.7708 C   0  0  0  0  0  0  0  0  0  0  0  0
   70.1546  107.7839  278.4739 C   0  0  0  0  0  0  0  0  0  0  0  0
   68.7857  108.3344  278.8477 C   0  0  0  0  0  0  0  0  0  0  0  0
   66.9988  109.5802  277.9917 C   0  0  0  0  0  0  0  0  0  0  0  0
   65.7247  108.9955  277.4070 C   0  0  0  0  0  0  0  0  0  0  0  0
   64.6367  110.0339  277.4484 C   0  0  0  0  0  0  0  0  0  0  0  0
   63.4902  109.7129  276.5534 C   0  0  0  0  0  0  0  0  0  0  0  0
   62.1416  109.7162  277.1784 C   0  0  0  0  0  0  0  0  0  0  0  0
   60.9875  109.5207  276.2563 C   0  0  1  0  0  0  0  0  0  0  0  0
   59.9024  110.5584  276.4837 C   0  0  1  0  0  0  0  0  0  0  0  0
   58.8456  110.4099  275.6349 F   0  0  0  0  0  0  0  0  0  0  0  0
   59.4990  110.4575  277.8065 F   0  0  0  0  0  0  0  0  0  0  0  0
   60.4311  111.8215  276.3000 F   0  0  0  0  0  0  0  0  0  0  0  0
   68.1310  108.7536  277.6325 N   0  0  0  0  0  4  0  0  0  0  0  0
   72.1591  106.8145  279.4487 N   0  0  0  0  0  4  0  0  0  0  0  0
   61.4146  109.6972  274.9219 O   0  0  0  0  0  0  0  0  0  0  0  0
   60.5047  108.2389  276.3544 O   0  0  0  0  0  0  0  0  0  0  0  0
  2  1  1  0
  1 15  1  0
  3  2  1  0
 14  3  1  0
  4  5  1  0
  4 14  1  0
  5  6  1  0
  6  7  1  0
  7  8  1  0
  8  9  1  0
  9 10  1  0
  9 16  1  6
  9 17  1  0
 10 11  1  6
 10 12  1  0
 10 13  1  0
M  CHG  2  14   1  15   1
M  END
$$$$
