
     RDKit          3D

 17 16  0  0  0  0  0  0  0  0999 V2000
   59.8844   74.0490  257.0069 C   0  0  0  0  0  0  0  0  0  0  0  0
   58.5542   74.2643  257.7251 C   0  0  0  0  0  0  0  0  0  0  0  0
   57.4497   74.0389  256.7023 C   0  0  0  0  0  0  0  0  0  0  0  0
   56.4056   74.3460  258.7744 C   0  0  0  0  0  0  0  0  0  0  0  0
   55.2471   73.9016  259.6504 C   0  0  0  0  0  0  0  0  0  0  0  0
   53.9841   73.8844  258.8329 C   0  0  0  0  0  0  0  0  0  0  0  0
   52.8225   73.3093  259.5669 C   0  0  0  0  0  0  0  0  0  0  0  0
   51.5086   73.3651  258.8744 C   0  0  0  0  0  0  0  0  0  0  0  0
   50.3512   72.7809  259.6090 C   0  0  1  0  0  0  0  0  0  0  0  0
   50.1656   71.3082  259.2884 C   0  0  1  0  0  0  0  0  0  0  0  0
   49.8831   71.0872  257.9728 F   0  0  0  0  0  0  0  0  0  0  0  0
   51.3249   70.6490  259.6682 F   0  0  0  0  0  0  0  0  0  0  0  0
   49.1264   70.8022  260.0453 F   0  0  0  0  0  0  0  0  0  0  0  0
   56.2094   73.8746  257.4203 N   0  0  0  0  0  4  0  0  0  0  0  0
   59.6232   73.8752  255.5770 N   0  0  0  0  0  4  0  0  0  0  0  0
   50.5940   72.8440  260.9988 O   0  0  0  0  0  0  0  0  0  0  0  0
   49.2118   73.5089  259.3696 O   0  0  0  0  0  0  0  0  0  0  0  0
  2  1  1  0
  1 15  1  0
  3  2  1  0
 14  3  1  0
  4  5  1  0
  4 14  1  0
  5  6  1  0
  6  7  1  0
  7  8  1  0
  8  9  1  0
  9 10  1  0
  9 16  1  1
  9 17  1  0
 10 11  1  6
 10 12  1  0
 10 13  1  0
M  CHG  2  14   1  15   1
M  END
$$$$
