
     RDKit          3D

 17 16  0  0  0  0  0  0  0  0999 V2000
   71.7075  108.6072  278.4729 C   0  0  0  0  0  0  0  0  0  0  0  0
   70.5460  109.2527  277.7208 C   0  0  0  0  0  0  0  0  0  0  0  0
   69.2814  108.5059  278.1206 C   0  0  0  0  0  0  0  0  0  0  0  0
   67.0229  109.0910  278.3064 C   0  0  0  0  0  0  0  0  0  0  0  0
   65.7982  108.6112  277.5469 C   0  0  0  0  0  0  0  0  0  0  0  0
   64.6661  109.5771  277.7683 C   0  0  0  0  0  0  0  0  0  0  0  0
   63.5091  109.3368  276.8616 C   0  0  0  0  0  0  0  0  0  0  0  0
   62.3004  110.1694  277.0960 C   0  0  0  0  0  0  0  0  0  0  0  0
   61.1196  109.8737  276.2364 C   0  0  1  0  0  0  0  0  0  0  0  0
   59.9808  110.8459  276.4894 C   0  0  1  0  0  0  0  0  0  0  0  0
   58.9233  110.6476  275.6517 F   0  0  0  0  0  0  0  0  0  0  0  0
   59.6006  110.7072  277.8158 F   0  0  0  0  0  0  0  0  0  0  0  0
   60.4351  112.1388  276.3147 F   0  0  0  0  0  0  0  0  0  0  0  0
   68.1718  109.1126  277.4268 N   0  0  0  0  0  4  0  0  0  0  0  0
   72.9628  109.1626  277.9641 N   0  0  0  0  0  4  0  0  0  0  0  0
   61.4714  110.0388  274.8787 O   0  0  0  0  0  0  0  0  0  0  0  0
   60.7268  108.5670  276.3907 O   0  0  0  0  0  0  0  0  0  0  0  0
  2  1  1  0
  1 15  1  0
  3  2  1  0
 14  3  1  0
  4  5  1  0
  4 14  1  0
  5  6  1  0
  6  7  1  0
  7  8  1  0
  8  9  1  0
  9 10  1  0
  9 16  1  6
  9 17  1  0
 10 11  1  6
 10 12  1  0
 10 13  1  0
M  CHG  2  14   1  15   1
M  END
$$$$
