
     RDKit          3D

 17 16  0  0  0  0  0  0  0  0999 V2000
   71.3695  107.7761  279.0272 C   0  0  0  0  0  0  0  0  0  0  0  0
   69.9819  108.1933  279.5091 C   0  0  0  0  0  0  0  0  0  0  0  0
   69.0503  108.1275  278.3073 C   0  0  0  0  0  0  0  0  0  0  0  0
   67.2271  109.5507  277.9495 C   0  0  0  0  0  0  0  0  0  0  0  0
   66.0429  109.0857  277.1198 C   0  0  0  0  0  0  0  0  0  0  0  0
   64.7914  109.7530  277.6222 C   0  0  0  0  0  0  0  0  0  0  0  0
   63.5638  109.3011  276.9099 C   0  0  0  0  0  0  0  0  0  0  0  0
   62.3428  110.1254  277.1072 C   0  0  0  0  0  0  0  0  0  0  0  0
   61.1202  109.6759  276.3835 C   0  0  1  0  0  0  0  0  0  0  0  0
   59.9794  110.6667  276.5351 C   0  0  1  0  0  0  0  0  0  0  0  0
   60.2927  111.9067  276.0622 F   0  0  0  0  0  0  0  0  0  0  0  0
   58.8801  110.1421  275.8724 F   0  0  0  0  0  0  0  0  0  0  0  0
   59.6490  110.7837  277.8714 F   0  0  0  0  0  0  0  0  0  0  0  0
   67.7211  108.4583  278.7598 N   0  0  0  0  0  4  0  0  0  0  0  0
   72.2545  107.6610  280.1875 N   0  0  0  0  0  4  0  0  0  0  0  0
   61.3895  109.6087  274.9988 O   0  0  0  0  0  0  0  0  0  0  0  0
   60.7622  108.4115  276.7821 O   0  0  0  0  0  0  0  0  0  0  0  0
  2  1  1  0
  1 15  1  0
  3  2  1  0
 14  3  1  0
  4  5  1  0
  4 14  1  0
  5  6  1  0
  6  7  1  0
  7  8  1  0
  8  9  1  0
  9 10  1  0
  9 16  1  6
  9 17  1  0
 10 11  1  6
 10 12  1  0
 10 13  1  0
M  CHG  2  14   1  15   1
M  END
$$$$
