
     RDKit          3D

 33 37  0  0  0  0  0  0  0  0999 V2000
    0.4834  -59.7740   10.7314 N   0  0  0  0  0  4  0  0  0  0  0  0
    1.0171  -59.1352   11.9000 C   0  0  0  0  0  0  0  0  0  0  0  0
    2.3404  -59.7464   12.2428 C   0  0  0  0  0  0  0  0  0  0  0  0
    3.4041  -59.6376   11.3951 C   0  0  0  0  0  0  0  0  0  0  0  0
    4.6127  -60.1931   11.7015 C   0  0  0  0  0  0  0  0  0  0  0  0
    4.8350  -60.8970   12.8826 C   0  0  0  0  0  0  0  0  0  0  0  0
    3.7436  -60.9925   13.7223 C   0  0  0  0  0  0  0  0  0  0  0  0
    2.5147  -60.4371   13.4284 C   0  0  0  0  0  0  0  0  0  0  0  0
    6.1216  -61.4906   13.2107 C   0  0  0  0  0  0  0  0  0  0  0  0
    6.6015  -61.3432   14.4889 C   0  0  0  0  0  0  0  0  0  0  0  0
    5.8135  -60.6113   15.4487 C   0  0  0  0  0  0  0  0  0  0  0  0
    5.5234  -59.3009   15.2184 C   0  0  0  0  0  0  0  0  0  0  0  0
    4.7717  -58.5990   16.1333 C   0  0  0  0  0  0  0  0  0  0  0  0
    4.3182  -59.2255   17.2748 C   0  0  0  0  0  0  0  0  0  0  0  0
    3.5250  -58.4793   18.2393 C   0  0  0  0  0  0  0  0  0  0  0  0
    3.2492  -58.8221   19.5456 C   0  0  0  0  0  0  0  0  0  0  0  0
    2.5053  -57.8955   20.0874 O   0  0  0  0  0  0  0  0  0  0  0  0
    2.2598  -56.9446   19.2270 C   0  0  0  0  0  0  0  0  0  0  0  0
    2.8866  -57.2726   18.0414 C   0  0  0  0  0  0  0  0  0  0  0  0
    4.5965  -60.5462   17.5311 C   0  0  0  0  0  0  0  0  0  0  0  0
    5.3642  -61.2293   16.5776 C   0  0  0  0  0  0  0  0  0  0  0  0
    7.8046  -61.8776   14.8604 N   0  0  0  0  0  0  0  0  0  0  0  0
    8.5536  -62.5638   13.9842 C   0  0  0  0  0  0  0  0  0  0  0  0
    8.0727  -62.7115   12.7028 C   0  0  0  0  0  0  0  0  0  0  0  0
    6.8871  -62.1817   12.3467 N   0  0  0  0  0  0  0  0  0  0  0  0
    9.7916  -63.1147   14.3645 O   0  0  0  0  0  0  0  0  0  0  0  0
   10.6615  -62.4452   15.2373 C   0  0  0  0  0  0  0  0  0  0  0  0
   11.9947  -63.1607   15.2369 C   0  0  1  0  0  0  0  0  0  0  0  0
   12.9148  -62.6301   16.2891 C   0  0  0  0  0  0  0  0  0  0  0  0
   12.4700  -62.9363   17.6931 C   0  0  0  0  0  0  0  0  0  0  0  0
   11.9270  -64.2525   17.8382 N   0  0  0  0  0  4  0  0  0  0  0  0
   12.3721  -65.1008   16.7553 C   0  0  0  0  0  0  0  0  0  0  0  0
   11.8396  -64.6426   15.4171 C   0  0  0  0  0  0  0  0  0  0  0  0
  1  2  1  0
  2  3  1  0
  3  4  2  0
  3  8  1  0
  4  5  1  0
  5  6  2  0
  6  7  1  0
  6  9  1  0
  7  8  2  0
  9 10  1  0
  9 25  2  0
 10 11  1  0
 10 22  2  0
 11 12  2  0
 11 21  1  0
 12 13  1  0
 13 14  2  0
 14 15  1  0
 14 20  1  0
 15 16  2  0
 15 19  1  0
 16 17  1  0
 17 18  1  0
 18 19  2  0
 20 21  2  0
 22 23  1  0
 23 24  2  0
 23 26  1  0
 24 25  1  0
 26 27  1  0
 28 27  1  1
 28 29  1  0
 28 33  1  0
 29 30  1  0
 30 31  1  0
 31 32  1  0
 32 33  1  0
M  CHG  2   1   1  31   1
M  END
$$$$
