
     RDKit          3D

 33 37  0  0  0  0  0  0  0  0999 V2000
    0.2977  -60.9863   10.7545 N   0  0  0  0  0  4  0  0  0  0  0  0
    1.3481  -60.7755    9.8002 C   0  0  0  0  0  0  0  0  0  0  0  0
    2.6753  -60.9289   10.4763 C   0  0  0  0  0  0  0  0  0  0  0  0
    3.6076  -61.8045   10.0010 C   0  0  0  0  0  0  0  0  0  0  0  0
    4.8190  -61.9496   10.6132 C   0  0  0  0  0  0  0  0  0  0  0  0
    5.1764  -61.2234   11.7469 C   0  0  0  0  0  0  0  0  0  0  0  0
    4.2161  -60.3452   12.2072 C   0  0  0  0  0  0  0  0  0  0  0  0
    2.9866  -60.1859   11.6006 C   0  0  0  0  0  0  0  0  0  0  0  0
    6.4661  -61.3771   12.4014 C   0  0  0  0  0  0  0  0  0  0  0  0
    6.4933  -61.5006   13.7688 C   0  0  0  0  0  0  0  0  0  0  0  0
    5.2487  -61.4746   14.4955 C   0  0  0  0  0  0  0  0  0  0  0  0
    5.0671  -60.5532   15.4816 C   0  0  0  0  0  0  0  0  0  0  0  0
    3.8799  -60.5261   16.1778 C   0  0  0  0  0  0  0  0  0  0  0  0
    2.8842  -61.4301   15.8734 C   0  0  0  0  0  0  0  0  0  0  0  0
    1.6318  -61.3983   16.6127 C   0  0  0  0  0  0  0  0  0  0  0  0
    0.6451  -62.3605   16.6366 C   0  0  0  0  0  0  0  0  0  0  0  0
   -0.3237  -61.9662   17.4186 O   0  0  0  0  0  0  0  0  0  0  0  0
   -0.0535  -60.7941   17.9266 C   0  0  0  0  0  0  0  0  0  0  0  0
    1.1767  -60.3952   17.4432 C   0  0  0  0  0  0  0  0  0  0  0  0
    3.0418  -62.3695   14.8834 C   0  0  0  0  0  0  0  0  0  0  0  0
    4.2633  -62.3674   14.1956 C   0  0  0  0  0  0  0  0  0  0  0  0
    7.6739  -61.6481   14.4438 N   0  0  0  0  0  0  0  0  0  0  0  0
    8.8437  -61.6766   13.7878 C   0  0  0  0  0  0  0  0  0  0  0  0
    8.8164  -61.5528   12.4170 C   0  0  0  0  0  0  0  0  0  0  0  0
    7.6491  -61.4080   11.7616 N   0  0  0  0  0  0  0  0  0  0  0  0
   10.0593  -61.8285   14.4804 O   0  0  0  0  0  0  0  0  0  0  0  0
   10.2903  -62.9134   15.3385 C   0  0  0  0  0  0  0  0  0  0  0  0
   11.5926  -62.6818   16.0736 C   0  0  1  0  0  0  0  0  0  0  0  0
   11.8741  -63.7628   17.0672 C   0  0  0  0  0  0  0  0  0  0  0  0
   12.1769  -65.0968   16.4415 C   0  0  0  0  0  0  0  0  0  0  0  0
   12.9893  -64.9975   15.2674 N   0  0  0  0  0  4  0  0  0  0  0  0
   13.6959  -63.7363   15.2517 C   0  0  0  0  0  0  0  0  0  0  0  0
   12.7563  -62.5584   15.1340 C   0  0  0  0  0  0  0  0  0  0  0  0
  1  2  1  0
  2  3  1  0
  3  4  2  0
  3  8  1  0
  4  5  1  0
  5  6  2  0
  6  7  1  0
  6  9  1  0
  7  8  2  0
  9 10  1  0
  9 25  2  0
 10 11  1  0
 10 22  2  0
 11 12  2  0
 11 21  1  0
 12 13  1  0
 13 14  2  0
 14 15  1  0
 14 20  1  0
 15 16  2  0
 15 19  1  0
 16 17  1  0
 17 18  1  0
 18 19  2  0
 20 21  2  0
 22 23  1  0
 23 24  2  0
 23 26  1  0
 24 25  1  0
 26 27  1  0
 28 27  1  6
 28 29  1  0
 28 33  1  0
 29 30  1  0
 30 31  1  0
 31 32  1  0
 32 33  1  0
M  CHG  2   1   1  31   1
M  END
$$$$
