
     RDKit          3D

 33 37  0  0  0  0  0  0  0  0999 V2000
    9.8801  -63.7651   20.9073 N   0  0  0  0  0  4  0  0  0  0  0  0
   10.7605  -63.0870   19.9998 C   0  0  0  0  0  0  0  0  0  0  0  0
   10.0948  -62.9519   18.6653 C   0  0  0  0  0  0  0  0  0  0  0  0
    9.2252  -63.9025   18.2158 C   0  0  0  0  0  0  0  0  0  0  0  0
    8.6157  -63.7856   17.0000 C   0  0  0  0  0  0  0  0  0  0  0  0
    8.8391  -62.7036   16.1517 C   0  0  0  0  0  0  0  0  0  0  0  0
    9.7225  -61.7566   16.6298 C   0  0  0  0  0  0  0  0  0  0  0  0
   10.3473  -61.8589   17.8562 C   0  0  0  0  0  0  0  0  0  0  0  0
    8.1917  -62.5775   14.8555 C   0  0  0  0  0  0  0  0  0  0  0  0
    7.0469  -61.8239   14.7684 C   0  0  0  0  0  0  0  0  0  0  0  0
    6.5374  -61.1908   15.9589 C   0  0  0  0  0  0  0  0  0  0  0  0
    6.7064  -59.8506   16.1304 C   0  0  0  0  0  0  0  0  0  0  0  0
    6.2215  -59.2431   17.2665 C   0  0  0  0  0  0  0  0  0  0  0  0
    5.5693  -59.9936   18.2218 C   0  0  0  0  0  0  0  0  0  0  0  0
    5.0595  -59.3474   19.4213 C   0  0  0  0  0  0  0  0  0  0  0  0
    5.2975  -58.0583   19.8474 C   0  0  0  0  0  0  0  0  0  0  0  0
    4.6627  -57.8504   20.9696 O   0  0  0  0  0  0  0  0  0  0  0  0
    4.0085  -58.9212   21.3305 C   0  0  0  0  0  0  0  0  0  0  0  0
    4.2311  -59.8959   20.3783 C   0  0  0  0  0  0  0  0  0  0  0  0
    5.3855  -61.3470   18.0732 C   0  0  0  0  0  0  0  0  0  0  0  0
    5.8922  -61.9314   16.9042 C   0  0  0  0  0  0  0  0  0  0  0  0
    6.3909  -61.6664   13.5784 N   0  0  0  0  0  0  0  0  0  0  0  0
    6.8480  -62.2452   12.4579 C   0  0  0  0  0  0  0  0  0  0  0  0
    7.9955  -63.0006   12.5452 C   0  0  0  0  0  0  0  0  0  0  0  0
    8.6341  -63.1497   13.7212 N   0  0  0  0  0  0  0  0  0  0  0  0
    6.1746  -62.0841   11.2326 O   0  0  0  0  0  0  0  0  0  0  0  0
    4.9846  -61.3487   11.1345 C   0  0  0  0  0  0  0  0  0  0  0  0
    5.2866  -60.0235   10.4694 C   0  0  1  0  0  0  0  0  0  0  0  0
    5.7664  -60.1992    9.0643 C   0  0  0  0  0  0  0  0  0  0  0  0
    4.7111  -60.7134    8.1237 C   0  0  0  0  0  0  0  0  0  0  0  0
    3.4210  -60.1387    8.3552 N   0  0  0  0  0  4  0  0  0  0  0  0
    3.5488  -58.8962    9.0834 C   0  0  0  0  0  0  0  0  0  0  0  0
    4.0991  -59.1059   10.4753 C   0  0  0  0  0  0  0  0  0  0  0  0
  1  2  1  0
  2  3  1  0
  3  4  2  0
  3  8  1  0
  4  5  1  0
  5  6  2  0
  6  7  1  0
  6  9  1  0
  7  8  2  0
  9 10  1  0
  9 25  2  0
 10 11  1  0
 10 22  2  0
 11 12  2  0
 11 21  1  0
 12 13  1  0
 13 14  2  0
 14 15  1  0
 14 20  1  0
 15 16  2  0
 15 19  1  0
 16 17  1  0
 17 18  1  0
 18 19  2  0
 20 21  2  0
 22 23  1  0
 23 24  2  0
 23 26  1  0
 24 25  1  0
 26 27  1  0
 28 27  1  6
 28 29  1  0
 28 33  1  0
 29 30  1  0
 30 31  1  0
 31 32  1  0
 32 33  1  0
M  CHG  2   1   1  31   1
M  END
$$$$
