
     RDKit          3D

 33 37  0  0  0  0  0  0  0  0999 V2000
   -1.2698  -67.2912   13.2161 N   0  0  0  0  0  4  0  0  0  0  0  0
   -0.7139  -66.4057   12.2335 C   0  0  0  0  0  0  0  0  0  0  0  0
    0.3372  -65.5500   12.8701 C   0  0  0  0  0  0  0  0  0  0  0  0
    1.6480  -65.6639   12.5089 C   0  0  0  0  0  0  0  0  0  0  0  0
    2.6110  -64.8874   13.0859 C   0  0  0  0  0  0  0  0  0  0  0  0
    2.3217  -63.9420   14.0670 C   0  0  0  0  0  0  0  0  0  0  0  0
    0.9891  -63.8467   14.4143 C   0  0  0  0  0  0  0  0  0  0  0  0
    0.0027  -64.6236   13.8412 C   0  0  0  0  0  0  0  0  0  0  0  0
    3.3462  -63.1143   14.6840 C   0  0  0  0  0  0  0  0  0  0  0  0
    3.3694  -61.7740   14.3858 C   0  0  0  0  0  0  0  0  0  0  0  0
    2.3814  -61.2448   13.4794 C   0  0  0  0  0  0  0  0  0  0  0  0
    1.4498  -60.3658   13.9416 C   0  0  0  0  0  0  0  0  0  0  0  0
    0.5045  -59.8591   13.0786 C   0  0  0  0  0  0  0  0  0  0  0  0
    0.5067  -60.2439   11.7545 C   0  0  0  0  0  0  0  0  0  0  0  0
   -0.4949  -59.7066   10.8466 C   0  0  0  0  0  0  0  0  0  0  0  0
   -0.7142  -60.0601    9.5325 C   0  0  0  0  0  0  0  0  0  0  0  0
   -1.7033  -59.3538    9.0547 O   0  0  0  0  0  0  0  0  0  0  0  0
   -2.1681  -58.5422    9.9658 C   0  0  0  0  0  0  0  0  0  0  0  0
   -1.4320  -58.7314   11.1183 C   0  0  0  0  0  0  0  0  0  0  0  0
    1.4353  -61.1290   11.2628 C   0  0  0  0  0  0  0  0  0  0  0  0
    2.3823  -61.6241   12.1700 C   0  0  0  0  0  0  0  0  0  0  0  0
    4.3074  -60.9422   14.9331 N   0  0  0  0  0  0  0  0  0  0  0  0
    5.2351  -61.4128   15.7801 C   0  0  0  0  0  0  0  0  0  0  0  0
    5.2119  -62.7564   16.0790 C   0  0  0  0  0  0  0  0  0  0  0  0
    4.2846  -63.5671   15.5350 N   0  0  0  0  0  0  0  0  0  0  0  0
    6.2008  -60.5587   16.3445 O   0  0  0  0  0  0  0  0  0  0  0  0
    6.2282  -59.1853   16.0619 C   0  0  0  0  0  0  0  0  0  0  0  0
    5.1431  -58.5028   16.8659 C   0  0  1  0  0  0  0  0  0  0  0  0
    5.4195  -58.5528   18.3343 C   0  0  0  0  0  0  0  0  0  0  0  0
    6.6003  -57.7224   18.7571 C   0  0  0  0  0  0  0  0  0  0  0  0
    6.6814  -56.4680   18.0728 N   0  0  0  0  0  4  0  0  0  0  0  0
    5.3921  -56.1119   17.5239 C   0  0  0  0  0  0  0  0  0  0  0  0
    4.9453  -57.0749   16.4483 C   0  0  0  0  0  0  0  0  0  0  0  0
  1  2  1  0
  2  3  1  0
  3  4  2  0
  3  8  1  0
  4  5  1  0
  5  6  2  0
  6  7  1  0
  6  9  1  0
  7  8  2  0
  9 10  1  0
  9 25  2  0
 10 11  1  0
 10 22  2  0
 11 12  2  0
 11 21  1  0
 12 13  1  0
 13 14  2  0
 14 15  1  0
 14 20  1  0
 15 16  2  0
 15 19  1  0
 16 17  1  0
 17 18  1  0
 18 19  2  0
 20 21  2  0
 22 23  1  0
 23 24  2  0
 23 26  1  0
 24 25  1  0
 26 27  1  0
 28 27  1  6
 28 29  1  0
 28 33  1  0
 29 30  1  0
 30 31  1  0
 31 32  1  0
 32 33  1  0
M  CHG  2   1   1  31   1
M  END
$$$$
