
     RDKit          3D

 33 37  0  0  0  0  0  0  0  0999 V2000
    6.8852  -64.6854   20.7972 N   0  0  0  0  0  4  0  0  0  0  0  0
    8.0898  -64.3562   20.0908 C   0  0  0  0  0  0  0  0  0  0  0  0
    7.7447  -63.8456   18.7261 C   0  0  0  0  0  0  0  0  0  0  0  0
    8.7205  -63.5641   17.8149 C   0  0  0  0  0  0  0  0  0  0  0  0
    8.4125  -63.0978   16.5695 C   0  0  0  0  0  0  0  0  0  0  0  0
    7.1005  -62.8820   16.1545 C   0  0  0  0  0  0  0  0  0  0  0  0
    6.1328  -63.1743   17.0945 C   0  0  0  0  0  0  0  0  0  0  0  0
    6.4264  -63.6465   18.3578 C   0  0  0  0  0  0  0  0  0  0  0  0
    6.7700  -62.3841   14.8285 C   0  0  0  0  0  0  0  0  0  0  0  0
    6.0765  -61.2030   14.7290 C   0  0  0  0  0  0  0  0  0  0  0  0
    5.7078  -60.5078   15.9367 C   0  0  0  0  0  0  0  0  0  0  0  0
    6.6621  -59.8459   16.6474 C   0  0  0  0  0  0  0  0  0  0  0  0
    6.3133  -59.1815   17.8015 C   0  0  0  0  0  0  0  0  0  0  0  0
    5.0027  -59.1905   18.2299 C   0  0  0  0  0  0  0  0  0  0  0  0
    4.6390  -58.4879   19.4507 C   0  0  0  0  0  0  0  0  0  0  0  0
    3.4650  -58.5959   20.1648 C   0  0  0  0  0  0  0  0  0  0  0  0
    3.5166  -57.8050   21.2027 O   0  0  0  0  0  0  0  0  0  0  0  0
    4.6552  -57.1667   21.2355 C   0  0  0  0  0  0  0  0  0  0  0  0
    5.3987  -57.5685   20.1438 C   0  0  0  0  0  0  0  0  0  0  0  0
    4.0207  -59.8504   17.5315 C   0  0  0  0  0  0  0  0  0  0  0  0
    4.4124  -60.5156   16.3614 C   0  0  0  0  0  0  0  0  0  0  0  0
    5.7355  -60.6817   13.5111 N   0  0  0  0  0  0  0  0  0  0  0  0
    6.0697  -61.3109   12.3745 C   0  0  0  0  0  0  0  0  0  0  0  0
    6.7649  -62.4949   12.4742 C   0  0  0  0  0  0  0  0  0  0  0  0
    7.0959  -63.0000   13.6777 N   0  0  0  0  0  0  0  0  0  0  0  0
    5.7202  -60.7760   11.1205 O   0  0  0  0  0  0  0  0  0  0  0  0
    4.5696  -61.1913   10.4348 C   0  0  0  0  0  0  0  0  0  0  0  0
    3.4451  -60.2277   10.7456 C   0  0  1  0  0  0  0  0  0  0  0  0
    3.6518  -58.8979   10.0944 C   0  0  0  0  0  0  0  0  0  0  0  0
    3.5395  -58.9338    8.5948 C   0  0  0  0  0  0  0  0  0  0  0  0
    2.4876  -59.7847    8.1283 N   0  0  0  0  0  4  0  0  0  0  0  0
    1.5194  -60.0072    9.1788 C   0  0  0  0  0  0  0  0  0  0  0  0
    2.1067  -60.7735   10.3416 C   0  0  0  0  0  0  0  0  0  0  0  0
  1  2  1  0
  2  3  1  0
  3  4  2  0
  3  8  1  0
  4  5  1  0
  5  6  2  0
  6  7  1  0
  6  9  1  0
  7  8  2  0
  9 10  1  0
  9 25  2  0
 10 11  1  0
 10 22  2  0
 11 12  2  0
 11 21  1  0
 12 13  1  0
 13 14  2  0
 14 15  1  0
 14 20  1  0
 15 16  2  0
 15 19  1  0
 16 17  1  0
 17 18  1  0
 18 19  2  0
 20 21  2  0
 22 23  1  0
 23 24  2  0
 23 26  1  0
 24 25  1  0
 26 27  1  0
 28 27  1  6
 28 29  1  0
 28 33  1  0
 29 30  1  0
 30 31  1  0
 31 32  1  0
 32 33  1  0
M  CHG  2   1   1  31   1
M  END
$$$$
