
     RDKit          3D

 33 37  0  0  0  0  0  0  0  0999 V2000
    4.2810  -58.4009   22.6732 N   0  0  0  0  0  4  0  0  0  0  0  0
    3.7539  -57.6003   21.6057 C   0  0  0  0  0  0  0  0  0  0  0  0
    4.2830  -58.1012   20.2975 C   0  0  0  0  0  0  0  0  0  0  0  0
    4.1135  -57.3820   19.1505 C   0  0  0  0  0  0  0  0  0  0  0  0
    4.5927  -57.8335   17.9548 C   0  0  0  0  0  0  0  0  0  0  0  0
    5.2761  -59.0409   17.8302 C   0  0  0  0  0  0  0  0  0  0  0  0
    5.4341  -59.7488   19.0047 C   0  0  0  0  0  0  0  0  0  0  0  0
    4.9561  -59.3072   20.2219 C   0  0  0  0  0  0  0  0  0  0  0  0
    5.7867  -59.5245   16.5572 C   0  0  0  0  0  0  0  0  0  0  0  0
    5.4268  -60.7843   16.1458 C   0  0  0  0  0  0  0  0  0  0  0  0
    4.5608  -61.5711   16.9877 C   0  0  0  0  0  0  0  0  0  0  0  0
    3.2456  -61.2356   17.0966 C   0  0  0  0  0  0  0  0  0  0  0  0
    2.4162  -61.9847   17.9003 C   0  0  0  0  0  0  0  0  0  0  0  0
    2.9210  -63.0676   18.5886 C   0  0  0  0  0  0  0  0  0  0  0  0
    2.0409  -63.8555   19.4375 C   0  0  0  0  0  0  0  0  0  0  0  0
    2.2873  -65.0986   19.9798 C   0  0  0  0  0  0  0  0  0  0  0  0
    1.2543  -65.4746   20.6848 O   0  0  0  0  0  0  0  0  0  0  0  0
    0.3217  -64.5613   20.6532 C   0  0  0  0  0  0  0  0  0  0  0  0
    0.7769  -63.5165   19.8739 C   0  0  0  0  0  0  0  0  0  0  0  0
    4.2437  -63.4275   18.4961 C   0  0  0  0  0  0  0  0  0  0  0  0
    5.0583  -62.6421   17.6687 C   0  0  0  0  0  0  0  0  0  0  0  0
    5.8735  -61.2970   14.9589 N   0  0  0  0  0  0  0  0  0  0  0  0
    6.6787  -60.5818   14.1590 C   0  0  0  0  0  0  0  0  0  0  0  0
    7.0395  -59.3190   14.5714 C   0  0  0  0  0  0  0  0  0  0  0  0
    6.5947  -58.8231   15.7416 N   0  0  0  0  0  0  0  0  0  0  0  0
    7.1391  -61.1074   12.9374 O   0  0  0  0  0  0  0  0  0  0  0  0
    6.9165  -60.4493   11.7191 C   0  0  0  0  0  0  0  0  0  0  0  0
    5.7838  -61.1421   10.9933 C   0  0  1  0  0  0  0  0  0  0  0  0
    5.3706  -60.3997    9.7632 C   0  0  0  0  0  0  0  0  0  0  0  0
    6.4066  -60.4103    8.6726 C   0  0  0  0  0  0  0  0  0  0  0  0
    7.0711  -61.6708    8.5384 N   0  0  0  0  0  4  0  0  0  0  0  0
    6.2753  -62.7228    9.1302 C   0  0  0  0  0  0  0  0  0  0  0  0
    6.1305  -62.5551   10.6252 C   0  0  0  0  0  0  0  0  0  0  0  0
  1  2  1  0
  2  3  1  0
  3  4  2  0
  3  8  1  0
  4  5  1  0
  5  6  2  0
  6  7  1  0
  6  9  1  0
  7  8  2  0
  9 10  1  0
  9 25  2  0
 10 11  1  0
 10 22  2  0
 11 12  2  0
 11 21  1  0
 12 13  1  0
 13 14  2  0
 14 15  1  0
 14 20  1  0
 15 16  2  0
 15 19  1  0
 16 17  1  0
 17 18  1  0
 18 19  2  0
 20 21  2  0
 22 23  1  0
 23 24  2  0
 23 26  1  0
 24 25  1  0
 26 27  1  0
 28 27  1  6
 28 29  1  0
 28 33  1  0
 29 30  1  0
 30 31  1  0
 31 32  1  0
 32 33  1  0
M  CHG  2   1   1  31   1
M  END
$$$$
