
     RDKit          3D

 33 37  0  0  0  0  0  0  0  0999 V2000
   -1.6655  -59.5230   13.6240 N   0  0  0  0  0  4  0  0  0  0  0  0
   -0.8612  -59.8077   14.7775 C   0  0  0  0  0  0  0  0  0  0  0  0
    0.5422  -60.1033   14.3471 C   0  0  0  0  0  0  0  0  0  0  0  0
    0.8838  -61.3334   13.8653 C   0  0  0  0  0  0  0  0  0  0  0  0
    2.1615  -61.6094   13.4720 C   0  0  0  0  0  0  0  0  0  0  0  0
    3.1846  -60.6664   13.5364 C   0  0  0  0  0  0  0  0  0  0  0  0
    2.8129  -59.4309   14.0272 C   0  0  0  0  0  0  0  0  0  0  0  0
    1.5262  -59.1347   14.4291 C   0  0  0  0  0  0  0  0  0  0  0  0
    4.5468  -60.9586   13.1190 C   0  0  0  0  0  0  0  0  0  0  0  0
    5.5646  -60.7427   14.0153 C   0  0  0  0  0  0  0  0  0  0  0  0
    5.2425  -60.2393   15.3270 C   0  0  0  0  0  0  0  0  0  0  0  0
    4.4788  -60.9928   16.1656 C   0  0  0  0  0  0  0  0  0  0  0  0
    4.1689  -60.5146   17.4187 C   0  0  0  0  0  0  0  0  0  0  0  0
    4.6326  -59.2784   17.8162 C   0  0  0  0  0  0  0  0  0  0  0  0
    4.3016  -58.7767   19.1410 C   0  0  0  0  0  0  0  0  0  0  0  0
    4.5502  -57.5203   19.6505 C   0  0  0  0  0  0  0  0  0  0  0  0
    4.1025  -57.4547   20.8755 O   0  0  0  0  0  0  0  0  0  0  0  0
    3.5651  -58.5914   21.2278 C   0  0  0  0  0  0  0  0  0  0  0  0
    3.6689  -59.4594   20.1592 C   0  0  0  0  0  0  0  0  0  0  0  0
    5.4048  -58.4984   16.9898 C   0  0  0  0  0  0  0  0  0  0  0  0
    5.7003  -59.0174   15.7216 C   0  0  0  0  0  0  0  0  0  0  0  0
    6.8670  -60.9977   13.6839 N   0  0  0  0  0  0  0  0  0  0  0  0
    7.1895  -61.4679   12.4696 C   0  0  0  0  0  0  0  0  0  0  0  0
    6.1693  -61.6844   11.5710 C   0  0  0  0  0  0  0  0  0  0  0  0
    4.8903  -61.4302   11.9067 N   0  0  0  0  0  0  0  0  0  0  0  0
    8.5288  -61.7313   12.1268 O   0  0  0  0  0  0  0  0  0  0  0  0
    9.4667  -62.1521   13.0806 C   0  0  0  0  0  0  0  0  0  0  0  0
   10.5338  -62.9684   12.3845 C   0  0  1  0  0  0  0  0  0  0  0  0
   11.8025  -63.0201   13.1737 C   0  0  0  0  0  0  0  0  0  0  0  0
   11.6882  -63.8022   14.4536 C   0  0  0  0  0  0  0  0  0  0  0  0
   10.8985  -64.9884   14.3211 N   0  0  0  0  0  4  0  0  0  0  0  0
   10.8160  -65.3833   12.9327 C   0  0  0  0  0  0  0  0  0  0  0  0
   10.0743  -64.3675   12.0947 C   0  0  0  0  0  0  0  0  0  0  0  0
  1  2  1  0
  2  3  1  0
  3  4  2  0
  3  8  1  0
  4  5  1  0
  5  6  2  0
  6  7  1  0
  6  9  1  0
  7  8  2  0
  9 10  1  0
  9 25  2  0
 10 11  1  0
 10 22  2  0
 11 12  2  0
 11 21  1  0
 12 13  1  0
 13 14  2  0
 14 15  1  0
 14 20  1  0
 15 16  2  0
 15 19  1  0
 16 17  1  0
 17 18  1  0
 18 19  2  0
 20 21  2  0
 22 23  1  0
 23 24  2  0
 23 26  1  0
 24 25  1  0
 26 27  1  0
 28 27  1  1
 28 29  1  0
 28 33  1  0
 29 30  1  0
 30 31  1  0
 31 32  1  0
 32 33  1  0
M  CHG  2   1   1  31   1
M  END
$$$$
