
     RDKit          3D

 33 37  0  0  0  0  0  0  0  0999 V2000
   10.5195  -64.4222   20.7782 N   0  0  0  0  0  4  0  0  0  0  0  0
    9.2298  -63.8009   20.6824 C   0  0  0  0  0  0  0  0  0  0  0  0
    8.9797  -63.3852   19.2658 C   0  0  0  0  0  0  0  0  0  0  0  0
    7.7206  -63.4058   18.7405 C   0  0  0  0  0  0  0  0  0  0  0  0
    7.4861  -63.0288   17.4497 C   0  0  0  0  0  0  0  0  0  0  0  0
    8.5030  -62.6049   16.5974 C   0  0  0  0  0  0  0  0  0  0  0  0
    9.7666  -62.5933   17.1529 C   0  0  0  0  0  0  0  0  0  0  0  0
   10.0215  -62.9710   18.4557 C   0  0  0  0  0  0  0  0  0  0  0  0
    8.2557  -62.2038   15.2214 C   0  0  0  0  0  0  0  0  0  0  0  0
    7.2526  -61.2987   14.9757 C   0  0  0  0  0  0  0  0  0  0  0  0
    6.4907  -60.7848   16.0862 C   0  0  0  0  0  0  0  0  0  0  0  0
    7.0889  -59.9511   16.9813 C   0  0  0  0  0  0  0  0  0  0  0  0
    6.3642  -59.4591   18.0432 C   0  0  0  0  0  0  0  0  0  0  0  0
    5.0400  -59.8127   18.1938 C   0  0  0  0  0  0  0  0  0  0  0  0
    4.2785  -59.2911   19.3182 C   0  0  0  0  0  0  0  0  0  0  0  0
    3.0699  -59.7475   19.7990 C   0  0  0  0  0  0  0  0  0  0  0  0
    2.7093  -59.0193   20.8213 O   0  0  0  0  0  0  0  0  0  0  0  0
    3.6005  -58.0963   21.0629 C   0  0  0  0  0  0  0  0  0  0  0  0
    4.6134  -58.2306   20.1344 C   0  0  0  0  0  0  0  0  0  0  0  0
    4.4126  -60.6518   17.3051 C   0  0  0  0  0  0  0  0  0  0  0  0
    5.1813  -61.1332   16.2363 C   0  0  0  0  0  0  0  0  0  0  0  0
    6.9703  -60.8813   13.7040 N   0  0  0  0  0  0  0  0  0  0  0  0
    7.6674  -61.3452   12.6560 C   0  0  0  0  0  0  0  0  0  0  0  0
    8.6730  -62.2525   12.9022 C   0  0  0  0  0  0  0  0  0  0  0  0
    8.9433  -62.6573   14.1577 N   0  0  0  0  0  0  0  0  0  0  0  0
    7.3788  -60.9168   11.3469 O   0  0  0  0  0  0  0  0  0  0  0  0
    6.2128  -60.1987   11.0445 C   0  0  0  0  0  0  0  0  0  0  0  0
    5.5104  -60.8783    9.8893 C   0  0  1  0  0  0  0  0  0  0  0  0
    4.4954  -61.8711   10.3576 C   0  0  0  0  0  0  0  0  0  0  0  0
    3.3072  -61.2478   11.0377 C   0  0  0  0  0  0  0  0  0  0  0  0
    2.8658  -60.0410   10.4076 N   0  0  0  0  0  4  0  0  0  0  0  0
    3.3432  -59.9836    9.0440 C   0  0  0  0  0  0  0  0  0  0  0  0
    4.8500  -59.8913    8.9716 C   0  0  0  0  0  0  0  0  0  0  0  0
  1  2  1  0
  2  3  1  0
  3  4  2  0
  3  8  1  0
  4  5  1  0
  5  6  2  0
  6  7  1  0
  6  9  1  0
  7  8  2  0
  9 10  1  0
  9 25  2  0
 10 11  1  0
 10 22  2  0
 11 12  2  0
 11 21  1  0
 12 13  1  0
 13 14  2  0
 14 15  1  0
 14 20  1  0
 15 16  2  0
 15 19  1  0
 16 17  1  0
 17 18  1  0
 18 19  2  0
 20 21  2  0
 22 23  1  0
 23 24  2  0
 23 26  1  0
 24 25  1  0
 26 27  1  0
 28 27  1  1
 28 29  1  0
 28 33  1  0
 29 30  1  0
 30 31  1  0
 31 32  1  0
 32 33  1  0
M  CHG  2   1   1  31   1
M  END
$$$$
