
     RDKit          3D

 33 37  0  0  0  0  0  0  0  0999 V2000
   11.1400  -65.6191   20.0974 N   0  0  0  0  0  4  0  0  0  0  0  0
   11.1839  -66.1330   18.7586 C   0  0  0  0  0  0  0  0  0  0  0  0
   10.5380  -65.1549   17.8268 C   0  0  0  0  0  0  0  0  0  0  0  0
    9.6009  -65.5615   16.9221 C   0  0  0  0  0  0  0  0  0  0  0  0
    9.0090  -64.6750   16.0695 C   0  0  0  0  0  0  0  0  0  0  0  0
    9.3192  -63.3171   16.0679 C   0  0  0  0  0  0  0  0  0  0  0  0
   10.2695  -62.9319   16.9920 C   0  0  0  0  0  0  0  0  0  0  0  0
   10.8778  -63.8146   17.8613 C   0  0  0  0  0  0  0  0  0  0  0  0
    8.6906  -62.3709   15.1597 C   0  0  0  0  0  0  0  0  0  0  0  0
    7.3258  -62.4143   15.0141 C   0  0  0  0  0  0  0  0  0  0  0  0
    6.5758  -63.3899   15.7648 C   0  0  0  0  0  0  0  0  0  0  0  0
    6.4556  -63.2502   17.1139 C   0  0  0  0  0  0  0  0  0  0  0  0
    5.7405  -64.1805   17.8337 C   0  0  0  0  0  0  0  0  0  0  0  0
    5.1518  -65.2458   17.1857 C   0  0  0  0  0  0  0  0  0  0  0  0
    4.3980  -66.2270   17.9508 C   0  0  0  0  0  0  0  0  0  0  0  0
    3.9026  -66.0951   19.2303 C   0  0  0  0  0  0  0  0  0  0  0  0
    3.2818  -67.1932   19.5683 O   0  0  0  0  0  0  0  0  0  0  0  0
    3.3264  -68.0623   18.5948 C   0  0  0  0  0  0  0  0  0  0  0  0
    4.0244  -67.4926   17.5487 C   0  0  0  0  0  0  0  0  0  0  0  0
    5.2576  -65.4099   15.8258 C   0  0  0  0  0  0  0  0  0  0  0  0
    5.9929  -64.4435   15.1256 C   0  0  0  0  0  0  0  0  0  0  0  0
    6.6746  -61.5516   14.1756 N   0  0  0  0  0  0  0  0  0  0  0  0
    7.3523  -60.6348   13.4686 C   0  0  0  0  0  0  0  0  0  0  0  0
    8.7205  -60.5914   13.6145 C   0  0  0  0  0  0  0  0  0  0  0  0
    9.3523  -61.4449   14.4424 N   0  0  0  0  0  0  0  0  0  0  0  0
    6.6842  -59.7462   12.6057 O   0  0  0  0  0  0  0  0  0  0  0  0
    6.4613  -60.0543   11.2558 C   0  0  0  0  0  0  0  0  0  0  0  0
    6.4004  -61.5587   11.1052 C   0  0  1  0  0  0  0  0  0  0  0  0
    5.0102  -62.0382   10.8361 C   0  0  0  0  0  0  0  0  0  0  0  0
    4.4798  -61.6328    9.4881 C   0  0  0  0  0  0  0  0  0  0  0  0
    5.4605  -61.7132    8.4488 N   0  0  0  0  0  4  0  0  0  0  0  0
    6.5371  -62.5944    8.8423 C   0  0  0  0  0  0  0  0  0  0  0  0
    7.3129  -62.0544   10.0216 C   0  0  0  0  0  0  0  0  0  0  0  0
  1  2  1  0
  2  3  1  0
  3  4  2  0
  3  8  1  0
  4  5  1  0
  5  6  2  0
  6  7  1  0
  6  9  1  0
  7  8  2  0
  9 10  1  0
  9 25  2  0
 10 11  1  0
 10 22  2  0
 11 12  2  0
 11 21  1  0
 12 13  1  0
 13 14  2  0
 14 15  1  0
 14 20  1  0
 15 16  2  0
 15 19  1  0
 16 17  1  0
 17 18  1  0
 18 19  2  0
 20 21  2  0
 22 23  1  0
 23 24  2  0
 23 26  1  0
 24 25  1  0
 26 27  1  0
 28 27  1  6
 28 29  1  0
 28 33  1  0
 29 30  1  0
 30 31  1  0
 31 32  1  0
 32 33  1  0
M  CHG  2   1   1  31   1
M  END
$$$$
