
     RDKit          3D

 33 37  0  0  0  0  0  0  0  0999 V2000
    3.3704  -56.9291   21.2130 N   0  0  0  0  0  4  0  0  0  0  0  0
    2.7269  -57.3116   19.9891 C   0  0  0  0  0  0  0  0  0  0  0  0
    3.7403  -57.8932   19.0526 C   0  0  0  0  0  0  0  0  0  0  0  0
    3.9725  -59.2372   19.0168 C   0  0  0  0  0  0  0  0  0  0  0  0
    4.8955  -59.7735   18.1660 C   0  0  0  0  0  0  0  0  0  0  0  0
    5.6493  -58.9940   17.2918 C   0  0  0  0  0  0  0  0  0  0  0  0
    5.3954  -57.6383   17.3478 C   0  0  0  0  0  0  0  0  0  0  0  0
    4.4661  -57.0794   18.2016 C   0  0  0  0  0  0  0  0  0  0  0  0
    6.6340  -59.5630   16.3852 C   0  0  0  0  0  0  0  0  0  0  0  0
    6.2397  -60.5755   15.5455 C   0  0  0  0  0  0  0  0  0  0  0  0
    4.8725  -61.0295   15.5957 C   0  0  0  0  0  0  0  0  0  0  0  0
    4.6035  -62.3054   15.9883 C   0  0  0  0  0  0  0  0  0  0  0  0
    3.2990  -62.7421   16.0368 C   0  0  0  0  0  0  0  0  0  0  0  0
    2.2749  -61.8871   15.6882 C   0  0  0  0  0  0  0  0  0  0  0  0
    0.8980  -62.3535   15.7399 C   0  0  0  0  0  0  0  0  0  0  0  0
   -0.2150  -61.7501   15.1948 C   0  0  0  0  0  0  0  0  0  0  0  0
   -1.2698  -62.4754   15.4537 O   0  0  0  0  0  0  0  0  0  0  0  0
   -0.9391  -63.5346   16.1419 C   0  0  0  0  0  0  0  0  0  0  0  0
    0.4257  -63.4989   16.3466 C   0  0  0  0  0  0  0  0  0  0  0  0
    2.5189  -60.5954   15.2889 C   0  0  0  0  0  0  0  0  0  0  0  0
    3.8589  -60.1854   15.2516 C   0  0  0  0  0  0  0  0  0  0  0  0
    7.1178  -61.1525   14.6696 N   0  0  0  0  0  0  0  0  0  0  0  0
    8.3942  -60.7448   14.6047 C   0  0  0  0  0  0  0  0  0  0  0  0
    8.7895  -59.7298   15.4465 C   0  0  0  0  0  0  0  0  0  0  0  0
    7.9176  -59.1682   16.3053 N   0  0  0  0  0  0  0  0  0  0  0  0
    9.2991  -61.3368   13.7041 O   0  0  0  0  0  0  0  0  0  0  0  0
   10.6017  -61.6867   14.0881 C   0  0  0  0  0  0  0  0  0  0  0  0
   10.5277  -62.8563   15.0452 C   0  0  1  0  0  0  0  0  0  0  0  0
   10.2849  -64.1480   14.3325 C   0  0  0  0  0  0  0  0  0  0  0  0
   11.4412  -64.5971   13.4818 C   0  0  0  0  0  0  0  0  0  0  0  0
   12.7145  -64.3642   14.0925 N   0  0  0  0  0  4  0  0  0  0  0  0
   12.5643  -64.2113   15.5224 C   0  0  0  0  0  0  0  0  0  0  0  0
   11.7670  -62.9790   15.8828 C   0  0  0  0  0  0  0  0  0  0  0  0
  1  2  1  0
  2  3  1  0
  3  4  2  0
  3  8  1  0
  4  5  1  0
  5  6  2  0
  6  7  1  0
  6  9  1  0
  7  8  2  0
  9 10  1  0
  9 25  2  0
 10 11  1  0
 10 22  2  0
 11 12  2  0
 11 21  1  0
 12 13  1  0
 13 14  2  0
 14 15  1  0
 14 20  1  0
 15 16  2  0
 15 19  1  0
 16 17  1  0
 17 18  1  0
 18 19  2  0
 20 21  2  0
 22 23  1  0
 23 24  2  0
 23 26  1  0
 24 25  1  0
 26 27  1  0
 28 27  1  6
 28 29  1  0
 28 33  1  0
 29 30  1  0
 30 31  1  0
 31 32  1  0
 32 33  1  0
M  CHG  2   1   1  31   1
M  END
$$$$
