
     RDKit          3D

 33 37  0  0  0  0  0  0  0  0999 V2000
    7.4748  -64.6272   21.5740 N   0  0  0  0  0  4  0  0  0  0  0  0
    6.4792  -65.1844   20.7041 C   0  0  0  0  0  0  0  0  0  0  0  0
    6.6511  -64.6254   19.3257 C   0  0  0  0  0  0  0  0  0  0  0  0
    5.8641  -65.0478   18.2941 C   0  0  0  0  0  0  0  0  0  0  0  0
    6.0163  -64.5427   17.0352 C   0  0  0  0  0  0  0  0  0  0  0  0
    6.9715  -63.5770   16.7266 C   0  0  0  0  0  0  0  0  0  0  0  0
    7.7542  -63.1670   17.7872 C   0  0  0  0  0  0  0  0  0  0  0  0
    7.6139  -63.6669   19.0660 C   0  0  0  0  0  0  0  0  0  0  0  0
    7.1362  -63.0382   15.3858 C   0  0  0  0  0  0  0  0  0  0  0  0
    6.8163  -61.7206   15.1682 C   0  0  0  0  0  0  0  0  0  0  0  0
    6.3343  -60.9292   16.2723 C   0  0  0  0  0  0  0  0  0  0  0  0
    5.3080  -61.3971   17.0352 C   0  0  0  0  0  0  0  0  0  0  0  0
    4.8451  -60.6434   18.0900 C   0  0  0  0  0  0  0  0  0  0  0  0
    5.4220  -59.4221   18.3670 C   0  0  0  0  0  0  0  0  0  0  0  0
    4.9286  -58.6287   19.4820 C   0  0  0  0  0  0  0  0  0  0  0  0
    5.4369  -57.4387   19.9569 C   0  0  0  0  0  0  0  0  0  0  0  0
    4.7184  -57.0361   20.9704 O   0  0  0  0  0  0  0  0  0  0  0  0
    3.7532  -57.8817   21.2118 C   0  0  0  0  0  0  0  0  0  0  0  0
    3.8476  -58.9074   20.2924 C   0  0  0  0  0  0  0  0  0  0  0  0
    6.4585  -58.9271   17.6132 C   0  0  0  0  0  0  0  0  0  0  0  0
    6.9037  -59.7216   16.5476 C   0  0  0  0  0  0  0  0  0  0  0  0
    6.9489  -61.1541   13.9301 N   0  0  0  0  0  0  0  0  0  0  0  0
    7.3969  -61.8714   12.8888 C   0  0  0  0  0  0  0  0  0  0  0  0
    7.7176  -63.1922   13.1069 C   0  0  0  0  0  0  0  0  0  0  0  0
    7.5835  -63.7408   14.3293 N   0  0  0  0  0  0  0  0  0  0  0  0
    7.5344  -61.2904   11.6143 O   0  0  0  0  0  0  0  0  0  0  0  0
    6.6230  -60.3390   11.1337 C   0  0  0  0  0  0  0  0  0  0  0  0
    5.4369  -61.0627   10.5345 C   0  0  1  0  0  0  0  0  0  0  0  0
    4.3026  -60.1331   10.2443 C   0  0  0  0  0  0  0  0  0  0  0  0
    4.5861  -59.1600    9.1328 C   0  0  0  0  0  0  0  0  0  0  0  0
    5.3084  -59.7430    8.0435 N   0  0  0  0  0  4  0  0  0  0  0  0
    5.1655  -61.1816    8.0599 C   0  0  0  0  0  0  0  0  0  0  0  0
    5.8024  -61.8033    9.2814 C   0  0  0  0  0  0  0  0  0  0  0  0
  1  2  1  0
  2  3  1  0
  3  4  2  0
  3  8  1  0
  4  5  1  0
  5  6  2  0
  6  7  1  0
  6  9  1  0
  7  8  2  0
  9 10  1  0
  9 25  2  0
 10 11  1  0
 10 22  2  0
 11 12  2  0
 11 21  1  0
 12 13  1  0
 13 14  2  0
 14 15  1  0
 14 20  1  0
 15 16  2  0
 15 19  1  0
 16 17  1  0
 17 18  1  0
 18 19  2  0
 20 21  2  0
 22 23  1  0
 23 24  2  0
 23 26  1  0
 24 25  1  0
 26 27  1  0
 28 27  1  6
 28 29  1  0
 28 33  1  0
 29 30  1  0
 30 31  1  0
 31 32  1  0
 32 33  1  0
M  CHG  2   1   1  31   1
M  END
$$$$
