
     RDKit          3D

 33 37  0  0  0  0  0  0  0  0999 V2000
    5.7065  -58.0017   22.4386 N   0  0  0  0  0  4  0  0  0  0  0  0
    5.4458  -59.3446   22.0060 C   0  0  0  0  0  0  0  0  0  0  0  0
    5.6164  -59.4328   20.5209 C   0  0  0  0  0  0  0  0  0  0  0  0
    6.4611  -60.3489   19.9650 C   0  0  0  0  0  0  0  0  0  0  0  0
    6.6215  -60.4339   18.6121 C   0  0  0  0  0  0  0  0  0  0  0  0
    5.9429  -59.6024   17.7243 C   0  0  0  0  0  0  0  0  0  0  0  0
    5.0951  -58.6850   18.3119 C   0  0  0  0  0  0  0  0  0  0  0  0
    4.9209  -58.5855   19.6774 C   0  0  0  0  0  0  0  0  0  0  0  0
    6.1130  -59.6904   16.2826 C   0  0  0  0  0  0  0  0  0  0  0  0
    4.9957  -59.8612   15.5028 C   0  0  0  0  0  0  0  0  0  0  0  0
    3.7063  -59.9442   16.1418 C   0  0  0  0  0  0  0  0  0  0  0  0
    2.6462  -59.2819   15.6016 C   0  0  0  0  0  0  0  0  0  0  0  0
    1.4137  -59.3587   16.2098 C   0  0  0  0  0  0  0  0  0  0  0  0
    1.2604  -60.1040   17.3597 C   0  0  0  0  0  0  0  0  0  0  0  0
   -0.0438  -60.1813   17.9995 C   0  0  0  0  0  0  0  0  0  0  0  0
   -1.2553  -59.7638   17.4918 C   0  0  0  0  0  0  0  0  0  0  0  0
   -2.1956  -60.0037   18.3658 O   0  0  0  0  0  0  0  0  0  0  0  0
   -1.6946  -60.5588   19.4361 C   0  0  0  0  0  0  0  0  0  0  0  0
   -0.3332  -60.6908   19.2484 C   0  0  0  0  0  0  0  0  0  0  0  0
    2.3133  -60.7817   17.9251 C   0  0  0  0  0  0  0  0  0  0  0  0
    3.5530  -60.6808   17.2786 C   0  0  0  0  0  0  0  0  0  0  0  0
    5.0886  -59.9512   14.1410 N   0  0  0  0  0  0  0  0  0  0  0  0
    6.2780  -59.8749   13.5251 C   0  0  0  0  0  0  0  0  0  0  0  0
    7.3981  -59.7038   14.3068 C   0  0  0  0  0  0  0  0  0  0  0  0
    7.2963  -59.6163   15.6466 N   0  0  0  0  0  0  0  0  0  0  0  0
    6.3757  -59.9670   12.1242 O   0  0  0  0  0  0  0  0  0  0  0  0
    7.0437  -61.0294   11.4983 C   0  0  0  0  0  0  0  0  0  0  0  0
    6.1341  -62.2387   11.4931 C   0  0  1  0  0  0  0  0  0  0  0  0
    5.1151  -62.1676   10.4014 C   0  0  0  0  0  0  0  0  0  0  0  0
    5.6977  -62.2901    9.0200 C   0  0  0  0  0  0  0  0  0  0  0  0
    6.7472  -63.2594    8.9347 N   0  0  0  0  0  4  0  0  0  0  0  0
    6.6599  -64.1915   10.0365 C   0  0  0  0  0  0  0  0  0  0  0  0
    6.9025  -63.5219   11.3695 C   0  0  0  0  0  0  0  0  0  0  0  0
  1  2  1  0
  2  3  1  0
  3  4  2  0
  3  8  1  0
  4  5  1  0
  5  6  2  0
  6  7  1  0
  6  9  1  0
  7  8  2  0
  9 10  1  0
  9 25  2  0
 10 11  1  0
 10 22  2  0
 11 12  2  0
 11 21  1  0
 12 13  1  0
 13 14  2  0
 14 15  1  0
 14 20  1  0
 15 16  2  0
 15 19  1  0
 16 17  1  0
 17 18  1  0
 18 19  2  0
 20 21  2  0
 22 23  1  0
 23 24  2  0
 23 26  1  0
 24 25  1  0
 26 27  1  0
 28 27  1  6
 28 29  1  0
 28 33  1  0
 29 30  1  0
 30 31  1  0
 31 32  1  0
 32 33  1  0
M  CHG  2   1   1  31   1
M  END
$$$$
