
     RDKit          3D

 33 37  0  0  0  0  0  0  0  0999 V2000
    7.4110  -64.3074   21.4194 N   0  0  0  0  0  4  0  0  0  0  0  0
    6.3031  -64.9309   20.7545 C   0  0  0  0  0  0  0  0  0  0  0  0
    6.0707  -64.2608   19.4357 C   0  0  0  0  0  0  0  0  0  0  0  0
    5.0493  -63.3711   19.2713 C   0  0  0  0  0  0  0  0  0  0  0  0
    4.8317  -62.7574   18.0715 C   0  0  0  0  0  0  0  0  0  0  0  0
    5.6272  -62.9967   16.9534 C   0  0  0  0  0  0  0  0  0  0  0  0
    6.6528  -63.9002   17.1462 C   0  0  0  0  0  0  0  0  0  0  0  0
    6.8870  -64.5296   18.3520 C   0  0  0  0  0  0  0  0  0  0  0  0
    5.3966  -62.3448   15.6739 C   0  0  0  0  0  0  0  0  0  0  0  0
    5.2390  -63.1318   14.5596 C   0  0  0  0  0  0  0  0  0  0  0  0
    5.3066  -64.5645   14.7033 C   0  0  0  0  0  0  0  0  0  0  0  0
    6.3030  -65.2544   14.0825 C   0  0  0  0  0  0  0  0  0  0  0  0
    6.3700  -66.6227   14.2173 C   0  0  0  0  0  0  0  0  0  0  0  0
    5.4299  -67.2849   14.9783 C   0  0  0  0  0  0  0  0  0  0  0  0
    5.5041  -68.7310   15.1169 C   0  0  0  0  0  0  0  0  0  0  0  0
    6.4541  -69.5785   14.5884 C   0  0  0  0  0  0  0  0  0  0  0  0
    6.1778  -70.8069   14.9354 O   0  0  0  0  0  0  0  0  0  0  0  0
    5.0974  -70.8436   15.6676 C   0  0  0  0  0  0  0  0  0  0  0  0
    4.6359  -69.5500   15.8087 C   0  0  0  0  0  0  0  0  0  0  0  0
    4.4148  -66.6127   15.6150 C   0  0  0  0  0  0  0  0  0  0  0  0
    4.3781  -65.2206   15.4554 C   0  0  0  0  0  0  0  0  0  0  0  0
    5.0193  -62.5799   13.3273 N   0  0  0  0  0  0  0  0  0  0  0  0
    4.9511  -61.2494   13.1706 C   0  0  0  0  0  0  0  0  0  0  0  0
    5.1091  -60.4605   14.2876 C   0  0  0  0  0  0  0  0  0  0  0  0
    5.3250  -61.0132   15.4964 N   0  0  0  0  0  0  0  0  0  0  0  0
    4.7249  -60.6797   11.9038 O   0  0  0  0  0  0  0  0  0  0  0  0
    5.7824  -60.3146   11.0582 C   0  0  0  0  0  0  0  0  0  0  0  0
    6.6942  -61.5088   10.8784 C   0  0  1  0  0  0  0  0  0  0  0  0
    6.2273  -62.4088    9.7797 C   0  0  0  0  0  0  0  0  0  0  0  0
    6.3424  -61.8009    8.4086 C   0  0  0  0  0  0  0  0  0  0  0  0
    7.5413  -61.0407    8.2276 N   0  0  0  0  0  4  0  0  0  0  0  0
    8.5359  -61.4334    9.2008 C   0  0  0  0  0  0  0  0  0  0  0  0
    8.1136  -61.0997   10.6131 C   0  0  0  0  0  0  0  0  0  0  0  0
  1  2  1  0
  2  3  1  0
  3  4  2  0
  3  8  1  0
  4  5  1  0
  5  6  2  0
  6  7  1  0
  6  9  1  0
  7  8  2  0
  9 10  1  0
  9 25  2  0
 10 11  1  0
 10 22  2  0
 11 12  2  0
 11 21  1  0
 12 13  1  0
 13 14  2  0
 14 15  1  0
 14 20  1  0
 15 16  2  0
 15 19  1  0
 16 17  1  0
 17 18  1  0
 18 19  2  0
 20 21  2  0
 22 23  1  0
 23 24  2  0
 23 26  1  0
 24 25  1  0
 26 27  1  0
 28 27  1  6
 28 29  1  0
 28 33  1  0
 29 30  1  0
 30 31  1  0
 31 32  1  0
 32 33  1  0
M  CHG  2   1   1  31   1
M  END
$$$$
