
     RDKit          3D

 33 37  0  0  0  0  0  0  0  0999 V2000
    5.9153  -64.4739   21.3318 N   0  0  0  0  0  4  0  0  0  0  0  0
    6.8424  -65.0564   20.4046 C   0  0  0  0  0  0  0  0  0  0  0  0
    6.5648  -64.5367   19.0280 C   0  0  0  0  0  0  0  0  0  0  0  0
    7.4022  -63.6369   18.4356 C   0  0  0  0  0  0  0  0  0  0  0  0
    7.1543  -63.1589   17.1813 C   0  0  0  0  0  0  0  0  0  0  0  0
    6.0459  -63.5532   16.4356 C   0  0  0  0  0  0  0  0  0  0  0  0
    5.2150  -64.4636   17.0572 C   0  0  0  0  0  0  0  0  0  0  0  0
    5.4506  -64.9572   18.3245 C   0  0  0  0  0  0  0  0  0  0  0  0
    5.7792  -63.0444   15.0995 C   0  0  0  0  0  0  0  0  0  0  0  0
    5.5615  -61.6973   14.9455 C   0  0  0  0  0  0  0  0  0  0  0  0
    5.6075  -60.8469   16.1085 C   0  0  0  0  0  0  0  0  0  0  0  0
    4.6881  -61.0148   17.0988 C   0  0  0  0  0  0  0  0  0  0  0  0
    4.7291  -60.2038   18.2104 C   0  0  0  0  0  0  0  0  0  0  0  0
    5.6983  -59.2286   18.3140 C   0  0  0  0  0  0  0  0  0  0  0  0
    5.7369  -58.3733   19.4900 C   0  0  0  0  0  0  0  0  0  0  0  0
    5.0202  -58.5179   20.6586 C   0  0  0  0  0  0  0  0  0  0  0  0
    5.3306  -57.5497   21.4782 O   0  0  0  0  0  0  0  0  0  0  0  0
    6.2149  -56.7568   20.9357 C   0  0  0  0  0  0  0  0  0  0  0  0
    6.5020  -57.2403   19.6748 C   0  0  0  0  0  0  0  0  0  0  0  0
    6.6374  -59.0384   17.3294 C   0  0  0  0  0  0  0  0  0  0  0  0
    6.5652  -59.8824   16.2125 C   0  0  0  0  0  0  0  0  0  0  0  0
    5.3054  -61.1567   13.7153 N   0  0  0  0  0  0  0  0  0  0  0  0
    5.2595  -61.9290   12.6195 C   0  0  0  0  0  0  0  0  0  0  0  0
    5.4777  -63.2795   12.7738 C   0  0  0  0  0  0  0  0  0  0  0  0
    5.7289  -63.8022   13.9890 N   0  0  0  0  0  0  0  0  0  0  0  0
    4.9966  -61.3747   11.3529 O   0  0  0  0  0  0  0  0  0  0  0  0
    5.8227  -61.6296   10.2487 C   0  0  0  0  0  0  0  0  0  0  0  0
    7.0207  -60.7076   10.3160 C   0  0  1  0  0  0  0  0  0  0  0  0
    7.9584  -60.9243    9.1720 C   0  0  0  0  0  0  0  0  0  0  0  0
    7.3973  -60.5044    7.8410 C   0  0  0  0  0  0  0  0  0  0  0  0
    6.6415  -59.2907    7.9052 N   0  0  0  0  0  4  0  0  0  0  0  0
    6.9991  -58.5393    9.0875 C   0  0  0  0  0  0  0  0  0  0  0  0
    6.6184  -59.2624   10.3588 C   0  0  0  0  0  0  0  0  0  0  0  0
  1  2  1  0
  2  3  1  0
  3  4  2  0
  3  8  1  0
  4  5  1  0
  5  6  2  0
  6  7  1  0
  6  9  1  0
  7  8  2  0
  9 10  1  0
  9 25  2  0
 10 11  1  0
 10 22  2  0
 11 12  2  0
 11 21  1  0
 12 13  1  0
 13 14  2  0
 14 15  1  0
 14 20  1  0
 15 16  2  0
 15 19  1  0
 16 17  1  0
 17 18  1  0
 18 19  2  0
 20 21  2  0
 22 23  1  0
 23 24  2  0
 23 26  1  0
 24 25  1  0
 26 27  1  0
 28 27  1  6
 28 29  1  0
 28 33  1  0
 29 30  1  0
 30 31  1  0
 31 32  1  0
 32 33  1  0
M  CHG  2   1   1  31   1
M  END
$$$$
