
     RDKit          3D

 33 37  0  0  0  0  0  0  0  0999 V2000
    5.4183  -70.2180   19.2634 N   0  0  0  0  0  4  0  0  0  0  0  0
    4.2096  -69.4703   19.0676 C   0  0  0  0  0  0  0  0  0  0  0  0
    4.4113  -68.4736   17.9685 C   0  0  0  0  0  0  0  0  0  0  0  0
    3.7259  -67.2938   17.9568 C   0  0  0  0  0  0  0  0  0  0  0  0
    3.9048  -66.3815   16.9573 C   0  0  0  0  0  0  0  0  0  0  0  0
    4.7861  -66.5932   15.8997 C   0  0  0  0  0  0  0  0  0  0  0  0
    5.4666  -67.7936   15.9351 C   0  0  0  0  0  0  0  0  0  0  0  0
    5.2981  -68.7271   16.9377 C   0  0  0  0  0  0  0  0  0  0  0  0
    4.9775  -65.6230   14.8332 C   0  0  0  0  0  0  0  0  0  0  0  0
    5.7592  -64.5224   15.0847 C   0  0  0  0  0  0  0  0  0  0  0  0
    6.3563  -64.3752   16.3884 C   0  0  0  0  0  0  0  0  0  0  0  0
    5.7030  -63.6647   17.3489 C   0  0  0  0  0  0  0  0  0  0  0  0
    6.2708  -63.5219   18.5947 C   0  0  0  0  0  0  0  0  0  0  0  0
    7.4949  -64.0977   18.8619 C   0  0  0  0  0  0  0  0  0  0  0  0
    8.0914  -63.9431   20.1796 C   0  0  0  0  0  0  0  0  0  0  0  0
    9.3441  -64.3480   20.5880 C   0  0  0  0  0  0  0  0  0  0  0  0
    9.5127  -64.0303   21.8434 O   0  0  0  0  0  0  0  0  0  0  0  0
    8.4494  -63.4341   22.3113 C   0  0  0  0  0  0  0  0  0  0  0  0
    7.5223  -63.3570   21.2912 C   0  0  0  0  0  0  0  0  0  0  0  0
    8.1747  -64.8196   17.9109 C   0  0  0  0  0  0  0  0  0  0  0  0
    7.5663  -64.9441   16.6542 C   0  0  0  0  0  0  0  0  0  0  0  0
    5.9780  -63.5737   14.1238 N   0  0  0  0  0  0  0  0  0  0  0  0
    5.4337  -63.6911   12.9033 C   0  0  0  0  0  0  0  0  0  0  0  0
    4.6500  -64.7944   12.6511 C   0  0  0  0  0  0  0  0  0  0  0  0
    4.4405  -65.7228   13.6037 N   0  0  0  0  0  0  0  0  0  0  0  0
    5.6578  -62.7164   11.9132 O   0  0  0  0  0  0  0  0  0  0  0  0
    6.7924  -61.8924   11.9308 C   0  0  0  0  0  0  0  0  0  0  0  0
    6.9948  -61.3156   10.5466 C   0  0  1  0  0  0  0  0  0  0  0  0
    5.9900  -60.2547   10.2302 C   0  0  0  0  0  0  0  0  0  0  0  0
    6.1543  -59.0020   11.0467 C   0  0  0  0  0  0  0  0  0  0  0  0
    7.5229  -58.6325   11.2433 N   0  0  0  0  0  4  0  0  0  0  0  0
    8.3588  -59.2524   10.2397 C   0  0  0  0  0  0  0  0  0  0  0  0
    8.3763  -60.7585   10.3641 C   0  0  0  0  0  0  0  0  0  0  0  0
  1  2  1  0
  2  3  1  0
  3  4  2  0
  3  8  1  0
  4  5  1  0
  5  6  2  0
  6  7  1  0
  6  9  1  0
  7  8  2  0
  9 10  1  0
  9 25  2  0
 10 11  1  0
 10 22  2  0
 11 12  2  0
 11 21  1  0
 12 13  1  0
 13 14  2  0
 14 15  1  0
 14 20  1  0
 15 16  2  0
 15 19  1  0
 16 17  1  0
 17 18  1  0
 18 19  2  0
 20 21  2  0
 22 23  1  0
 23 24  2  0
 23 26  1  0
 24 25  1  0
 26 27  1  0
 28 27  1  1
 28 29  1  0
 28 33  1  0
 29 30  1  0
 30 31  1  0
 31 32  1  0
 32 33  1  0
M  CHG  2   1   1  31   1
M  END
$$$$
