
     RDKit          3D

 33 37  0  0  0  0  0  0  0  0999 V2000
   11.7483  -67.4254   15.0410 N   0  0  0  0  0  4  0  0  0  0  0  0
   11.4188  -66.2807   15.8406 C   0  0  0  0  0  0  0  0  0  0  0  0
   10.5167  -65.3721   15.0641 C   0  0  0  0  0  0  0  0  0  0  0  0
    9.2519  -65.7585   14.7284 C   0  0  0  0  0  0  0  0  0  0  0  0
    8.4250  -64.9352   14.0201 C   0  0  0  0  0  0  0  0  0  0  0  0
    8.8137  -63.6653   13.6000 C   0  0  0  0  0  0  0  0  0  0  0  0
   10.0971  -63.2988   13.9522 C   0  0  0  0  0  0  0  0  0  0  0  0
   10.9462  -64.1184   14.6679 C   0  0  0  0  0  0  0  0  0  0  0  0
    7.9348  -62.7869   12.8444 C   0  0  0  0  0  0  0  0  0  0  0  0
    6.8918  -62.1834   13.5030 C   0  0  0  0  0  0  0  0  0  0  0  0
    6.7128  -62.4427   14.9096 C   0  0  0  0  0  0  0  0  0  0  0  0
    5.7437  -63.3098   15.3136 C   0  0  0  0  0  0  0  0  0  0  0  0
    5.5698  -63.5592   16.6561 C   0  0  0  0  0  0  0  0  0  0  0  0
    6.3760  -62.9308   17.5816 C   0  0  0  0  0  0  0  0  0  0  0  0
    6.1878  -63.1966   18.9994 C   0  0  0  0  0  0  0  0  0  0  0  0
    5.5780  -64.2901   19.5759 C   0  0  0  0  0  0  0  0  0  0  0  0
    5.6061  -64.1648   20.8756 O   0  0  0  0  0  0  0  0  0  0  0  0
    6.1982  -63.0518   21.2153 C   0  0  0  0  0  0  0  0  0  0  0  0
    6.5836  -62.4054   20.0579 C   0  0  0  0  0  0  0  0  0  0  0  0
    7.3609  -62.0519   17.2007 C   0  0  0  0  0  0  0  0  0  0  0  0
    7.5092  -61.8224   15.8258 C   0  0  0  0  0  0  0  0  0  0  0  0
    6.0298  -61.3464   12.8490 N   0  0  0  0  0  0  0  0  0  0  0  0
    6.1785  -61.0896   11.5407 C   0  0  0  0  0  0  0  0  0  0  0  0
    7.2240  -61.6947   10.8804 C   0  0  0  0  0  0  0  0  0  0  0  0
    8.0671  -62.5170   11.5330 N   0  0  0  0  0  0  0  0  0  0  0  0
    5.2929  -60.2286   10.8662 O   0  0  0  0  0  0  0  0  0  0  0  0
    4.1710  -60.7135   10.1785 C   0  0  0  0  0  0  0  0  0  0  0  0
    4.0313  -59.9506    8.8792 C   0  0  1  0  0  0  0  0  0  0  0  0
    3.0775  -60.6159    7.9396 C   0  0  0  0  0  0  0  0  0  0  0  0
    1.6468  -60.5800    8.4027 C   0  0  0  0  0  0  0  0  0  0  0  0
    1.2802  -59.3348    9.0055 N   0  0  0  0  0  4  0  0  0  0  0  0
    2.1933  -58.2913    8.5958 C   0  0  0  0  0  0  0  0  0  0  0  0
    3.5968  -58.5315    9.1023 C   0  0  0  0  0  0  0  0  0  0  0  0
  1  2  1  0
  2  3  1  0
  3  4  2  0
  3  8  1  0
  4  5  1  0
  5  6  2  0
  6  7  1  0
  6  9  1  0
  7  8  2  0
  9 10  1  0
  9 25  2  0
 10 11  1  0
 10 22  2  0
 11 12  2  0
 11 21  1  0
 12 13  1  0
 13 14  2  0
 14 15  1  0
 14 20  1  0
 15 16  2  0
 15 19  1  0
 16 17  1  0
 17 18  1  0
 18 19  2  0
 20 21  2  0
 22 23  1  0
 23 24  2  0
 23 26  1  0
 24 25  1  0
 26 27  1  0
 28 27  1  1
 28 29  1  0
 28 33  1  0
 29 30  1  0
 30 31  1  0
 31 32  1  0
 32 33  1  0
M  CHG  2   1   1  31   1
M  END
$$$$
