
     RDKit          3D

 33 37  0  0  0  0  0  0  0  0999 V2000
    8.3877  -69.6179   17.1496 N   0  0  0  0  0  4  0  0  0  0  0  0
    7.9446  -68.8241   18.2595 C   0  0  0  0  0  0  0  0  0  0  0  0
    7.5561  -67.4614   17.7754 C   0  0  0  0  0  0  0  0  0  0  0  0
    6.9735  -67.2908   16.5534 C   0  0  0  0  0  0  0  0  0  0  0  0
    6.6177  -66.0513   16.1060 C   0  0  0  0  0  0  0  0  0  0  0  0
    6.8236  -64.8968   16.8576 C   0  0  0  0  0  0  0  0  0  0  0  0
    7.4141  -65.0967   18.0892 C   0  0  0  0  0  0  0  0  0  0  0  0
    7.7800  -66.3425   18.5570 C   0  0  0  0  0  0  0  0  0  0  0  0
    6.4462  -63.5749   16.3825 C   0  0  0  0  0  0  0  0  0  0  0  0
    5.6366  -62.8021   17.1781 C   0  0  0  0  0  0  0  0  0  0  0  0
    5.1974  -63.3293   18.4457 C   0  0  0  0  0  0  0  0  0  0  0  0
    4.7567  -64.6155   18.5206 C   0  0  0  0  0  0  0  0  0  0  0  0
    4.3360  -65.1218   19.7296 C   0  0  0  0  0  0  0  0  0  0  0  0
    4.3634  -64.3252   20.8548 C   0  0  0  0  0  0  0  0  0  0  0  0
    3.9168  -64.8643   22.1300 C   0  0  0  0  0  0  0  0  0  0  0  0
    3.9278  -64.2378   23.3578 C   0  0  0  0  0  0  0  0  0  0  0  0
    3.4455  -65.0487   24.2607 O   0  0  0  0  0  0  0  0  0  0  0  0
    3.1080  -66.1879   23.7192 C   0  0  0  0  0  0  0  0  0  0  0  0
    3.3891  -66.1163   22.3694 C   0  0  0  0  0  0  0  0  0  0  0  0
    4.8034  -63.0246   20.8066 C   0  0  0  0  0  0  0  0  0  0  0  0
    5.2240  -62.5432   19.5591 C   0  0  0  0  0  0  0  0  0  0  0  0
    5.2463  -61.5503   16.7883 N   0  0  0  0  0  0  0  0  0  0  0  0
    5.6443  -61.0391   15.6136 C   0  0  0  0  0  0  0  0  0  0  0  0
    6.4558  -61.8139   14.8160 C   0  0  0  0  0  0  0  0  0  0  0  0
    6.8346  -63.0450   15.2085 N   0  0  0  0  0  0  0  0  0  0  0  0
    5.2440  -59.7514   15.2110 O   0  0  0  0  0  0  0  0  0  0  0  0
    4.7947  -58.7951   16.1331 C   0  0  0  0  0  0  0  0  0  0  0  0
    5.9417  -57.8663   16.4667 C   0  0  1  0  0  0  0  0  0  0  0  0
    5.4623  -56.5166   16.8953 C   0  0  0  0  0  0  0  0  0  0  0  0
    4.7520  -56.5191   18.2213 C   0  0  0  0  0  0  0  0  0  0  0  0
    5.3612  -57.3834   19.1858 N   0  0  0  0  0  4  0  0  0  0  0  0
    6.7336  -57.6541   18.8203 C   0  0  0  0  0  0  0  0  0  0  0  0
    6.8361  -58.4340   17.5298 C   0  0  0  0  0  0  0  0  0  0  0  0
  1  2  1  0
  2  3  1  0
  3  4  2  0
  3  8  1  0
  4  5  1  0
  5  6  2  0
  6  7  1  0
  6  9  1  0
  7  8  2  0
  9 10  1  0
  9 25  2  0
 10 11  1  0
 10 22  2  0
 11 12  2  0
 11 21  1  0
 12 13  1  0
 13 14  2  0
 14 15  1  0
 14 20  1  0
 15 16  2  0
 15 19  1  0
 16 17  1  0
 17 18  1  0
 18 19  2  0
 20 21  2  0
 22 23  1  0
 23 24  2  0
 23 26  1  0
 24 25  1  0
 26 27  1  0
 28 27  1  1
 28 29  1  0
 28 33  1  0
 29 30  1  0
 30 31  1  0
 31 32  1  0
 32 33  1  0
M  CHG  2   1   1  31   1
M  END
$$$$
