
     RDKit          3D

 33 37  0  0  0  0  0  0  0  0999 V2000
    9.6882  -68.6681   11.2650 N   0  0  0  0  0  4  0  0  0  0  0  0
    9.0165  -67.6021   10.5788 C   0  0  0  0  0  0  0  0  0  0  0  0
    8.6399  -66.5356   11.5601 C   0  0  0  0  0  0  0  0  0  0  0  0
    7.7846  -66.8002   12.5898 C   0  0  0  0  0  0  0  0  0  0  0  0
    7.4368  -65.8322   13.4872 C   0  0  0  0  0  0  0  0  0  0  0  0
    7.9255  -64.5301   13.4106 C   0  0  0  0  0  0  0  0  0  0  0  0
    8.7882  -64.2887   12.3604 C   0  0  0  0  0  0  0  0  0  0  0  0
    9.1506  -65.2554   11.4443 C   0  0  0  0  0  0  0  0  0  0  0  0
    7.5554  -63.4969   14.3649 C   0  0  0  0  0  0  0  0  0  0  0  0
    6.9828  -62.3433   13.8885 C   0  0  0  0  0  0  0  0  0  0  0  0
    6.7716  -62.2050   12.4693 C   0  0  0  0  0  0  0  0  0  0  0  0
    7.3619  -61.1762   11.8006 C   0  0  0  0  0  0  0  0  0  0  0  0
    7.1618  -61.0411   10.4454 C   0  0  0  0  0  0  0  0  0  0  0  0
    6.3664  -61.9461    9.7748 C   0  0  0  0  0  0  0  0  0  0  0  0
    6.1569  -61.7986    8.3429 C   0  0  0  0  0  0  0  0  0  0  0  0
    6.5931  -60.7739    7.5306 C   0  0  0  0  0  0  0  0  0  0  0  0
    6.2063  -61.0007    6.3040 O   0  0  0  0  0  0  0  0  0  0  0  0
    5.5337  -62.1177    6.2354 C   0  0  0  0  0  0  0  0  0  0  0  0
    5.4772  -62.6580    7.5047 C   0  0  0  0  0  0  0  0  0  0  0  0
    5.7594  -62.9928   10.4256 C   0  0  0  0  0  0  0  0  0  0  0  0
    5.9857  -63.0990   11.8049 C   0  0  0  0  0  0  0  0  0  0  0  0
    6.6123  -61.3340   14.7343 N   0  0  0  0  0  0  0  0  0  0  0  0
    6.7980  -61.4419   16.0585 C   0  0  0  0  0  0  0  0  0  0  0  0
    7.3721  -62.5983   16.5362 C   0  0  0  0  0  0  0  0  0  0  0  0
    7.7334  -63.5862   15.6955 N   0  0  0  0  0  0  0  0  0  0  0  0
    6.4173  -60.4049   16.9304 O   0  0  0  0  0  0  0  0  0  0  0  0
    6.8830  -59.0924   16.7655 C   0  0  0  0  0  0  0  0  0  0  0  0
    5.6952  -58.1791   16.5539 C   0  0  1  0  0  0  0  0  0  0  0  0
    4.5344  -58.5626   17.4144 C   0  0  0  0  0  0  0  0  0  0  0  0
    4.7661  -58.3312   18.8826 C   0  0  0  0  0  0  0  0  0  0  0  0
    5.4687  -57.1151   19.1578 N   0  0  0  0  0  4  0  0  0  0  0  0
    5.3557  -56.2065   18.0388 C   0  0  0  0  0  0  0  0  0  0  0  0
    6.0397  -56.7394   16.8010 C   0  0  0  0  0  0  0  0  0  0  0  0
  1  2  1  0
  2  3  1  0
  3  4  2  0
  3  8  1  0
  4  5  1  0
  5  6  2  0
  6  7  1  0
  6  9  1  0
  7  8  2  0
  9 10  1  0
  9 25  2  0
 10 11  1  0
 10 22  2  0
 11 12  2  0
 11 21  1  0
 12 13  1  0
 13 14  2  0
 14 15  1  0
 14 20  1  0
 15 16  2  0
 15 19  1  0
 16 17  1  0
 17 18  1  0
 18 19  2  0
 20 21  2  0
 22 23  1  0
 23 24  2  0
 23 26  1  0
 24 25  1  0
 26 27  1  0
 28 27  1  1
 28 29  1  0
 28 33  1  0
 29 30  1  0
 30 31  1  0
 31 32  1  0
 32 33  1  0
M  CHG  2   1   1  31   1
M  END
$$$$
