
     RDKit          3D

 37 42  0  0  0  0  0  0  0  0999 V2000
   84.9386   45.9631  267.5082 C   0  0  0  0  0  0  0  0  0  0  0  0
   83.6495   45.2717  267.8016 C   0  0  0  0  0  0  0  0  0  0  0  0
   83.6419   44.4221  269.0313 C   0  0  0  0  0  0  0  0  0  0  0  0
   84.9693   44.0225  269.4631 N   0  0  2  0  0  4  0  0  0  0  0  0
   85.4935   44.9770  270.3955 C   0  0  0  0  0  0  0  0  0  0  0  0
   85.8139   43.7892  268.3053 C   0  0  0  0  0  0  0  0  0  0  0  0
   86.1606   45.1849  267.7843 C   0  0  1  0  0  0  0  0  0  0  0  0
   87.0496   45.1791  266.6706 N   0  0  0  0  0  0  0  0  0  0  0  0
   87.4639   46.3808  266.0572 C   0  0  0  0  0  0  0  0  0  0  0  0
   86.9294   47.4268  266.4066 O   0  0  0  0  0  0  0  0  0  0  0  0
   88.4978   46.2981  265.0703 C   0  0  0  0  0  0  0  0  0  0  0  0
   88.3197   45.4271  263.9830 C   0  0  0  0  0  0  0  0  0  0  0  0
   89.1911   45.3980  262.9227 C   0  0  0  0  0  0  0  0  0  0  0  0
   90.2521   46.2095  262.8894 N   0  0  0  0  0  0  0  0  0  0  0  0
   90.4462   47.0563  263.9286 C   0  0  0  0  0  0  0  0  0  0  0  0
   89.5875   47.1143  265.0243 C   0  0  0  0  0  0  0  0  0  0  0  0
   89.9214   47.8419  266.1927 N   0  0  0  0  0  0  0  0  0  0  0  0
   91.2937   48.1859  266.4461 C   0  0  0  0  0  0  0  0  0  0  0  0
   91.6579   49.3529  267.1201 C   0  0  0  0  0  0  0  0  0  0  0  0
   92.3362   47.3461  266.1035 C   0  0  0  0  0  0  0  0  0  0  0  0
   93.6621   47.5853  266.3735 C   0  0  0  0  0  0  0  0  0  0  0  0
   94.6396   46.7217  266.0037 N   0  0  0  0  0  0  0  0  0  0  0  0
   95.9367   46.9663  266.2720 C   0  0  0  0  0  0  0  0  0  0  0  0
   96.2895   48.1209  266.9377 C   0  0  0  0  0  0  0  0  0  0  0  0
   95.2922   48.9732  267.3009 N   0  0  0  0  0  0  0  0  0  0  0  0
   93.9937   48.7324  267.0346 C   0  0  0  0  0  0  0  0  0  0  0  0
   92.9815   49.6138  267.4077 C   0  0  0  0  0  0  0  0  0  0  0  0
   93.4252   50.7825  268.1981 C   0  0  0  0  0  0  0  0  0  0  0  0
   92.7807   52.0083  267.9402 C   0  0  0  0  0  0  0  0  0  0  0  0
   93.1283   53.1466  268.6223 C   0  0  0  0  0  0  0  0  0  0  0  0
   92.6850   54.4363  268.5829 N   0  0  0  0  0  0  0  0  0  0  0  0
   91.6072   54.8209  267.6512 C   0  0  0  0  0  0  0  0  0  0  0  0
   93.3409   55.1942  269.4487 C   0  0  0  0  0  0  0  0  0  0  0  0
   94.2710   54.4169  270.1151 C   0  0  0  0  0  0  0  0  0  0  0  0
   94.1230   53.1555  269.5914 C   0  0  0  0  0  0  0  0  0  0  0  0
   94.7590   51.9328  269.8433 C   0  0  0  0  0  0  0  0  0  0  0  0
   94.3890   50.7805  269.1365 C   0  0  0  0  0  0  0  0  0  0  0  0
  1  2  1  0
  1  7  1  0
  2  3  1  0
  3  4  1  0
  4  5  1  1
  4  6  1  0
  6  7  1  0
  7  8  1  6
  8  9  1  0
  9 10  2  0
  9 11  1  0
 11 12  2  0
 11 16  1  0
 12 13  1  0
 13 14  2  0
 14 15  1  0
 15 16  2  0
 16 17  1  0
 17 18  1  0
 18 19  2  0
 18 20  1  0
 19 27  1  0
 20 21  2  0
 21 22  1  0
 21 26  1  0
 22 23  2  0
 23 24  1  0
 24 25  2  0
 25 26  1  0
 26 27  2  0
 27 28  1  0
 28 29  2  0
 28 37  1  0
 29 30  1  0
 30 31  1  0
 30 35  2  0
 31 32  1  0
 31 33  1  0
 33 34  2  0
 34 35  1  0
 35 36  1  0
 36 37  2  0
M  CHG  1   4   1
M  END
$$$$
