
     RDKit          3D

 37 42  0  0  0  0  0  0  0  0999 V2000
   84.6222   47.2674  267.0660 C   0  0  0  0  0  0  0  0  0  0  0  0
   83.1426   47.1029  266.9678 C   0  0  0  0  0  0  0  0  0  0  0  0
   82.5343   46.1607  267.9558 C   0  0  0  0  0  0  0  0  0  0  0  0
   83.4865   45.2164  268.5123 N   0  0  2  0  0  4  0  0  0  0  0  0
   84.0658   45.7476  269.7112 C   0  0  0  0  0  0  0  0  0  0  0  0
   84.4527   44.8359  267.4974 C   0  0  0  0  0  0  0  0  0  0  0  0
   85.3845   46.0422  267.3702 C   0  0  1  0  0  0  0  0  0  0  0  0
   86.4599   45.8449  266.4561 N   0  0  0  0  0  0  0  0  0  0  0  0
   87.5527   46.7367  266.4066 C   0  0  0  0  0  0  0  0  0  0  0  0
   87.5103   47.7479  267.0979 O   0  0  0  0  0  0  0  0  0  0  0  0
   88.6514   46.3909  265.5563 C   0  0  0  0  0  0  0  0  0  0  0  0
   88.4168   45.5262  264.4749 C   0  0  0  0  0  0  0  0  0  0  0  0
   89.3779   45.2635  263.5305 C   0  0  0  0  0  0  0  0  0  0  0  0
   90.5852   45.8306  263.6101 N   0  0  0  0  0  0  0  0  0  0  0  0
   90.8356   46.6661  264.6465 C   0  0  0  0  0  0  0  0  0  0  0  0
   89.8890   46.9559  265.6267 C   0  0  0  0  0  0  0  0  0  0  0  0
   90.2344   47.6516  266.8111 N   0  0  0  0  0  0  0  0  0  0  0  0
   91.5583   48.1923  266.9556 C   0  0  0  0  0  0  0  0  0  0  0  0
   91.7984   49.4235  267.5682 C   0  0  0  0  0  0  0  0  0  0  0  0
   92.6836   47.4928  266.5633 C   0  0  0  0  0  0  0  0  0  0  0  0
   93.9775   47.9240  266.7306 C   0  0  0  0  0  0  0  0  0  0  0  0
   95.0402   47.1910  266.3165 N   0  0  0  0  0  0  0  0  0  0  0  0
   96.3047   47.6234  266.4841 C   0  0  0  0  0  0  0  0  0  0  0  0
   96.5348   48.8404  267.0896 C   0  0  0  0  0  0  0  0  0  0  0  0
   95.4538   49.5592  267.4989 N   0  0  0  0  0  0  0  0  0  0  0  0
   94.1874   49.1304  267.3333 C   0  0  0  0  0  0  0  0  0  0  0  0
   93.0882   49.8765  267.7527 C   0  0  0  0  0  0  0  0  0  0  0  0
   93.4143   51.1248  268.4756 C   0  0  0  0  0  0  0  0  0  0  0  0
   92.8113   51.3079  269.7354 C   0  0  0  0  0  0  0  0  0  0  0  0
   93.0524   52.4368  270.4768 C   0  0  0  0  0  0  0  0  0  0  0  0
   92.6196   52.8683  271.6966 N   0  0  0  0  0  0  0  0  0  0  0  0
   91.6911   52.0392  272.4890 C   0  0  0  0  0  0  0  0  0  0  0  0
   93.1378   54.0495  271.9975 C   0  0  0  0  0  0  0  0  0  0  0  0
   93.9570   54.4603  270.9614 C   0  0  0  0  0  0  0  0  0  0  0  0
   93.8918   53.4501  270.0326 C   0  0  0  0  0  0  0  0  0  0  0  0
   94.4888   53.2608  268.7794 C   0  0  0  0  0  0  0  0  0  0  0  0
   94.2307   52.1001  268.0374 C   0  0  0  0  0  0  0  0  0  0  0  0
  1  2  1  0
  1  7  1  0
  2  3  1  0
  3  4  1  0
  4  5  1  1
  4  6  1  0
  6  7  1  0
  7  8  1  6
  8  9  1  0
  9 10  2  0
  9 11  1  0
 11 12  2  0
 11 16  1  0
 12 13  1  0
 13 14  2  0
 14 15  1  0
 15 16  2  0
 16 17  1  0
 17 18  1  0
 18 19  2  0
 18 20  1  0
 19 27  1  0
 20 21  2  0
 21 22  1  0
 21 26  1  0
 22 23  2  0
 23 24  1  0
 24 25  2  0
 25 26  1  0
 26 27  2  0
 27 28  1  0
 28 29  2  0
 28 37  1  0
 29 30  1  0
 30 31  1  0
 30 35  2  0
 31 32  1  0
 31 33  1  0
 33 34  2  0
 34 35  1  0
 35 36  1  0
 36 37  2  0
M  CHG  1   4   1
M  END
$$$$
