
     RDKit          3D

 37 42  0  0  0  0  0  0  0  0999 V2000
   86.6395   45.7614  262.9734 C   0  0  0  0  0  0  0  0  0  0  0  0
   86.0608   45.0296  261.8092 C   0  0  0  0  0  0  0  0  0  0  0  0
   84.5689   44.9412  261.7835 C   0  0  0  0  0  0  0  0  0  0  0  0
   83.9579   45.1410  263.0853 N   0  0  2  0  0  4  0  0  0  0  0  0
   83.6502   46.5276  263.2791 C   0  0  0  0  0  0  0  0  0  0  0  0
   84.8001   44.5639  264.1179 C   0  0  0  0  0  0  0  0  0  0  0  0
   85.9657   45.5431  264.2669 C   0  0  1  0  0  0  0  0  0  0  0  0
   86.8883   45.1878  265.2932 N   0  0  0  0  0  0  0  0  0  0  0  0
   87.5736   46.1730  266.0359 C   0  0  0  0  0  0  0  0  0  0  0  0
   87.4258   47.3478  265.7196 O   0  0  0  0  0  0  0  0  0  0  0  0
   88.3910   45.7316  267.1254 C   0  0  0  0  0  0  0  0  0  0  0  0
   88.0024   44.5825  267.8332 C   0  0  0  0  0  0  0  0  0  0  0  0
   88.8035   44.0111  268.7904 C   0  0  0  0  0  0  0  0  0  0  0  0
   89.9966   44.5365  269.0837 N   0  0  0  0  0  0  0  0  0  0  0  0
   90.3913   45.6469  268.4160 C   0  0  0  0  0  0  0  0  0  0  0  0
   89.6069   46.2587  267.4406 C   0  0  0  0  0  0  0  0  0  0  0  0
   89.9353   47.5315  266.9130 N   0  0  0  0  0  0  0  0  0  0  0  0
   91.2954   47.9928  266.9684 C   0  0  0  0  0  0  0  0  0  0  0  0
   91.6244   49.3062  267.3083 C   0  0  0  0  0  0  0  0  0  0  0  0
   92.3669   47.1452  266.7608 C   0  0  0  0  0  0  0  0  0  0  0  0
   93.6887   47.5069  266.8612 C   0  0  0  0  0  0  0  0  0  0  0  0
   94.6953   46.6266  266.6381 N   0  0  0  0  0  0  0  0  0  0  0  0
   95.9879   46.9917  266.7379 C   0  0  0  0  0  0  0  0  0  0  0  0
   96.3058   48.2905  267.0737 C   0  0  0  0  0  0  0  0  0  0  0  0
   95.2799   49.1574  267.2948 N   0  0  0  0  0  0  0  0  0  0  0  0
   93.9857   48.7963  267.1961 C   0  0  0  0  0  0  0  0  0  0  0  0
   92.9436   49.6932  267.4208 C   0  0  0  0  0  0  0  0  0  0  0  0
   93.3589   51.0407  267.8667 C   0  0  0  0  0  0  0  0  0  0  0  0
   92.7159   51.5611  269.0069 C   0  0  0  0  0  0  0  0  0  0  0  0
   93.0336   52.8047  269.4915 C   0  0  0  0  0  0  0  0  0  0  0  0
   92.5871   53.5416  270.5493 N   0  0  0  0  0  0  0  0  0  0  0  0
   91.5408   53.0019  271.4389 C   0  0  0  0  0  0  0  0  0  0  0  0
   93.2073   54.7101  270.6138 C   0  0  0  0  0  0  0  0  0  0  0  0
   94.1144   54.7979  269.5732 C   0  0  0  0  0  0  0  0  0  0  0  0
   93.9928   53.6108  268.8925 C   0  0  0  0  0  0  0  0  0  0  0  0
   94.6288   53.0864  267.7596 C   0  0  0  0  0  0  0  0  0  0  0  0
   94.2910   51.8135  267.2805 C   0  0  0  0  0  0  0  0  0  0  0  0
  1  2  1  0
  1  7  1  0
  2  3  1  0
  3  4  1  0
  4  5  1  1
  4  6  1  0
  6  7  1  0
  7  8  1  1
  8  9  1  0
  9 10  2  0
  9 11  1  0
 11 12  2  0
 11 16  1  0
 12 13  1  0
 13 14  2  0
 14 15  1  0
 15 16  2  0
 16 17  1  0
 17 18  1  0
 18 19  2  0
 18 20  1  0
 19 27  1  0
 20 21  2  0
 21 22  1  0
 21 26  1  0
 22 23  2  0
 23 24  1  0
 24 25  2  0
 25 26  1  0
 26 27  2  0
 27 28  1  0
 28 29  2  0
 28 37  1  0
 29 30  1  0
 30 31  1  0
 30 35  2  0
 31 32  1  0
 31 33  1  0
 33 34  2  0
 34 35  1  0
 35 36  1  0
 36 37  2  0
M  CHG  1   4   1
M  END
$$$$
