
     RDKit          3D

 37 42  0  0  0  0  0  0  0  0999 V2000
   84.5947   46.4743  267.4927 C   0  0  0  0  0  0  0  0  0  0  0  0
   83.1941   45.9957  267.6797 C   0  0  0  0  0  0  0  0  0  0  0  0
   82.9921   45.0211  268.7947 C   0  0  0  0  0  0  0  0  0  0  0  0
   84.2115   44.3411  269.1929 N   0  0  2  0  0  4  0  0  0  0  0  0
   84.8619   45.0678  270.2435 C   0  0  0  0  0  0  0  0  0  0  0  0
   85.0432   44.0994  268.0274 C   0  0  0  0  0  0  0  0  0  0  0  0
   85.6494   45.4621  267.6880 C   0  0  1  0  0  0  0  0  0  0  0  0
   86.5632   45.4294  266.5950 N   0  0  0  0  0  0  0  0  0  0  0  0
   87.1808   46.6064  266.1205 C   0  0  0  0  0  0  0  0  0  0  0  0
   86.8176   47.6814  266.5837 O   0  0  0  0  0  0  0  0  0  0  0  0
   88.2070   46.4635  265.1324 C   0  0  0  0  0  0  0  0  0  0  0  0
   87.9852   45.5891  264.0561 C   0  0  0  0  0  0  0  0  0  0  0  0
   88.8514   45.5066  262.9943 C   0  0  0  0  0  0  0  0  0  0  0  0
   89.9493   46.2667  262.9492 N   0  0  0  0  0  0  0  0  0  0  0  0
   90.1858   47.1156  263.9778 C   0  0  0  0  0  0  0  0  0  0  0  0
   89.3338   47.2269  265.0745 C   0  0  0  0  0  0  0  0  0  0  0  0
   89.7047   47.9516  266.2335 N   0  0  0  0  0  0  0  0  0  0  0  0
   91.0934   48.2213  266.4872 C   0  0  0  0  0  0  0  0  0  0  0  0
   91.5315   49.4308  267.0293 C   0  0  0  0  0  0  0  0  0  0  0  0
   92.0754   47.2715  266.2793 C   0  0  0  0  0  0  0  0  0  0  0  0
   93.4094   47.4428  266.5605 C   0  0  0  0  0  0  0  0  0  0  0  0
   94.3254   46.4710  266.3264 N   0  0  0  0  0  0  0  0  0  0  0  0
   95.6312   46.6496  266.6044 C   0  0  0  0  0  0  0  0  0  0  0  0
   96.0571   47.8467  267.1393 C   0  0  0  0  0  0  0  0  0  0  0  0
   95.1208   48.8079  267.3676 N   0  0  0  0  0  0  0  0  0  0  0  0
   93.8138   48.6335  267.0911 C   0  0  0  0  0  0  0  0  0  0  0  0
   92.8646   49.6259  267.3253 C   0  0  0  0  0  0  0  0  0  0  0  0
   93.3794   50.8452  267.9852 C   0  0  0  0  0  0  0  0  0  0  0  0
   92.7125   51.2687  269.1515 C   0  0  0  0  0  0  0  0  0  0  0  0
   93.1174   52.3909  269.8290 C   0  0  0  0  0  0  0  0  0  0  0  0
   92.6729   53.0176  270.9564 N   0  0  0  0  0  0  0  0  0  0  0  0
   91.5179   52.4762  271.6983 C   0  0  0  0  0  0  0  0  0  0  0  0
   93.4001   54.0915  271.2249 C   0  0  0  0  0  0  0  0  0  0  0  0
   94.3827   54.2241  270.2603 C   0  0  0  0  0  0  0  0  0  0  0  0
   94.1919   53.1635  269.4082 C   0  0  0  0  0  0  0  0  0  0  0  0
   94.8510   52.7358  268.2482 C   0  0  0  0  0  0  0  0  0  0  0  0
   94.4229   51.5862  267.5706 C   0  0  0  0  0  0  0  0  0  0  0  0
  1  2  1  0
  1  7  1  0
  2  3  1  0
  3  4  1  0
  4  5  1  1
  4  6  1  0
  6  7  1  0
  7  8  1  6
  8  9  1  0
  9 10  2  0
  9 11  1  0
 11 12  2  0
 11 16  1  0
 12 13  1  0
 13 14  2  0
 14 15  1  0
 15 16  2  0
 16 17  1  0
 17 18  1  0
 18 19  2  0
 18 20  1  0
 19 27  1  0
 20 21  2  0
 21 22  1  0
 21 26  1  0
 22 23  2  0
 23 24  1  0
 24 25  2  0
 25 26  1  0
 26 27  2  0
 27 28  1  0
 28 29  2  0
 28 37  1  0
 29 30  1  0
 30 31  1  0
 30 35  2  0
 31 32  1  0
 31 33  1  0
 33 34  2  0
 34 35  1  0
 35 36  1  0
 36 37  2  0
M  CHG  1   4   1
M  END
$$$$
