
     RDKit          3D

 37 42  0  0  0  0  0  0  0  0999 V2000
   84.6424   45.9233  267.3600 C   0  0  0  0  0  0  0  0  0  0  0  0
   83.3767   45.1965  267.6693 C   0  0  0  0  0  0  0  0  0  0  0  0
   83.3611   44.4588  268.9692 C   0  0  0  0  0  0  0  0  0  0  0  0
   84.6880   44.1657  269.4807 N   0  0  2  0  0  4  0  0  0  0  0  0
   85.1303   45.2232  270.3414 C   0  0  0  0  0  0  0  0  0  0  0  0
   85.5870   43.8744  268.3783 C   0  0  0  0  0  0  0  0  0  0  0  0
   85.8878   45.2347  267.7466 C   0  0  1  0  0  0  0  0  0  0  0  0
   86.8187   45.1757  266.6693 N   0  0  0  0  0  0  0  0  0  0  0  0
   87.3758   46.3491  266.1172 C   0  0  0  0  0  0  0  0  0  0  0  0
   86.9588   47.4322  266.5107 O   0  0  0  0  0  0  0  0  0  0  0  0
   88.4078   46.1942  265.1368 C   0  0  0  0  0  0  0  0  0  0  0  0
   88.1780   45.3338  264.0508 C   0  0  0  0  0  0  0  0  0  0  0  0
   89.0519   45.2431  262.9960 C   0  0  0  0  0  0  0  0  0  0  0  0
   90.1652   45.9813  262.9672 N   0  0  0  0  0  0  0  0  0  0  0  0
   90.4095   46.8163  264.0054 C   0  0  0  0  0  0  0  0  0  0  0  0
   89.5501   46.9351  265.0955 C   0  0  0  0  0  0  0  0  0  0  0  0
   89.9251   47.6422  266.2641 N   0  0  0  0  0  0  0  0  0  0  0  0
   91.2994   48.0164  266.4563 C   0  0  0  0  0  0  0  0  0  0  0  0
   91.6689   49.2606  266.9702 C   0  0  0  0  0  0  0  0  0  0  0  0
   92.3397   47.1396  266.2138 C   0  0  0  0  0  0  0  0  0  0  0  0
   93.6679   47.4120  266.4365 C   0  0  0  0  0  0  0  0  0  0  0  0
   94.6429   46.5082  266.1708 N   0  0  0  0  0  0  0  0  0  0  0  0
   95.9423   46.7857  266.3915 C   0  0  0  0  0  0  0  0  0  0  0  0
   96.3003   48.0166  266.8988 C   0  0  0  0  0  0  0  0  0  0  0  0
   95.3055   48.9084  267.1596 N   0  0  0  0  0  0  0  0  0  0  0  0
   94.0046   48.6349  266.9405 C   0  0  0  0  0  0  0  0  0  0  0  0
   92.9950   49.5569  267.2076 C   0  0  0  0  0  0  0  0  0  0  0  0
   93.4451   50.8178  267.8358 C   0  0  0  0  0  0  0  0  0  0  0  0
   92.8179   51.1886  269.0414 C   0  0  0  0  0  0  0  0  0  0  0  0
   93.1679   52.3436  269.6939 C   0  0  0  0  0  0  0  0  0  0  0  0
   92.7425   52.9355  270.8471 N   0  0  0  0  0  0  0  0  0  0  0  0
   91.6849   52.3021  271.6583 C   0  0  0  0  0  0  0  0  0  0  0  0
   93.3920   54.0677  271.0715 C   0  0  0  0  0  0  0  0  0  0  0  0
   94.2987   54.2784  270.0483 C   0  0  0  0  0  0  0  0  0  0  0  0
   94.1458   53.2020  269.2084 C   0  0  0  0  0  0  0  0  0  0  0  0
   94.7658   52.8264  268.0096 C   0  0  0  0  0  0  0  0  0  0  0  0
   94.3951   51.6421  267.3584 C   0  0  0  0  0  0  0  0  0  0  0  0
  1  2  1  0
  1  7  1  0
  2  3  1  0
  3  4  1  0
  4  5  1  6
  4  6  1  0
  6  7  1  0
  7  8  1  6
  8  9  1  0
  9 10  2  0
  9 11  1  0
 11 12  2  0
 11 16  1  0
 12 13  1  0
 13 14  2  0
 14 15  1  0
 15 16  2  0
 16 17  1  0
 17 18  1  0
 18 19  2  0
 18 20  1  0
 19 27  1  0
 20 21  2  0
 21 22  1  0
 21 26  1  0
 22 23  2  0
 23 24  1  0
 24 25  2  0
 25 26  1  0
 26 27  2  0
 27 28  1  0
 28 29  2  0
 28 37  1  0
 29 30  1  0
 30 31  1  0
 30 35  2  0
 31 32  1  0
 31 33  1  0
 33 34  2  0
 34 35  1  0
 35 36  1  0
 36 37  2  0
M  CHG  1   4   1
M  END
$$$$
