
     RDKit          3D

 37 42  0  0  0  0  0  0  0  0999 V2000
   84.7562   45.8262  267.5109 C   0  0  0  0  0  0  0  0  0  0  0  0
   83.4772   45.0632  267.6002 C   0  0  0  0  0  0  0  0  0  0  0  0
   83.2953   44.2588  268.8467 C   0  0  0  0  0  0  0  0  0  0  0  0
   84.5428   43.9619  269.5276 N   0  0  2  0  0  4  0  0  0  0  0  0
   84.8331   44.9806  270.4934 C   0  0  0  0  0  0  0  0  0  0  0  0
   85.5958   43.7434  268.5519 C   0  0  0  0  0  0  0  0  0  0  0  0
   85.9504   45.1395  268.0373 C   0  0  1  0  0  0  0  0  0  0  0  0
   87.0259   45.1522  267.1024 N   0  0  0  0  0  0  0  0  0  0  0  0
   87.2346   46.2501  266.2404 C   0  0  0  0  0  0  0  0  0  0  0  0
   86.5760   47.2673  266.4238 O   0  0  0  0  0  0  0  0  0  0  0  0
   88.2186   46.1056  265.2105 C   0  0  0  0  0  0  0  0  0  0  0  0
   88.1076   45.0224  264.3235 C   0  0  0  0  0  0  0  0  0  0  0  0
   88.9196   44.8951  263.2241 C   0  0  0  0  0  0  0  0  0  0  0  0
   89.8553   45.8110  262.9576 N   0  0  0  0  0  0  0  0  0  0  0  0
   89.9830   46.8633  263.8009 C   0  0  0  0  0  0  0  0  0  0  0  0
   89.1813   47.0272  264.9284 C   0  0  0  0  0  0  0  0  0  0  0  0
   89.4703   48.0065  265.9100 N   0  0  0  0  0  0  0  0  0  0  0  0
   90.8381   48.3473  266.1907 C   0  0  0  0  0  0  0  0  0  0  0  0
   91.1986   49.5594  266.7820 C   0  0  0  0  0  0  0  0  0  0  0  0
   91.8764   47.4650  265.9605 C   0  0  0  0  0  0  0  0  0  0  0  0
   93.1951   47.7034  266.2643 C   0  0  0  0  0  0  0  0  0  0  0  0
   94.1690   46.7963  266.0064 N   0  0  0  0  0  0  0  0  0  0  0  0
   95.4591   47.0405  266.3070 C   0  0  0  0  0  0  0  0  0  0  0  0
   95.8082   48.2397  266.8905 C   0  0  0  0  0  0  0  0  0  0  0  0
   94.8146   49.1354  267.1421 N   0  0  0  0  0  0  0  0  0  0  0  0
   93.5231   48.8952  266.8431 C   0  0  0  0  0  0  0  0  0  0  0  0
   92.5147   49.8210  267.1016 C   0  0  0  0  0  0  0  0  0  0  0  0
   92.9500   51.0429  267.8119 C   0  0  0  0  0  0  0  0  0  0  0  0
   92.2179   51.4087  268.9585 C   0  0  0  0  0  0  0  0  0  0  0  0
   92.5467   52.5286  269.6794 C   0  0  0  0  0  0  0  0  0  0  0  0
   92.0297   53.1074  270.8015 N   0  0  0  0  0  0  0  0  0  0  0  0
   90.8686   52.5004  271.4802 C   0  0  0  0  0  0  0  0  0  0  0  0
   92.6995   54.2028  271.1265 C   0  0  0  0  0  0  0  0  0  0  0  0
   93.7149   54.4003  270.2082 C   0  0  0  0  0  0  0  0  0  0  0  0
   93.6046   53.3551  269.3235 C   0  0  0  0  0  0  0  0  0  0  0  0
   94.3287   52.9847  268.1828 C   0  0  0  0  0  0  0  0  0  0  0  0
   93.9778   51.8363  267.4602 C   0  0  0  0  0  0  0  0  0  0  0  0
  1  2  1  0
  1  7  1  0
  2  3  1  0
  3  4  1  0
  4  5  1  1
  4  6  1  0
  6  7  1  0
  7  8  1  6
  8  9  1  0
  9 10  2  0
  9 11  1  0
 11 12  2  0
 11 16  1  0
 12 13  1  0
 13 14  2  0
 14 15  1  0
 15 16  2  0
 16 17  1  0
 17 18  1  0
 18 19  2  0
 18 20  1  0
 19 27  1  0
 20 21  2  0
 21 22  1  0
 21 26  1  0
 22 23  2  0
 23 24  1  0
 24 25  2  0
 25 26  1  0
 26 27  2  0
 27 28  1  0
 28 29  2  0
 28 37  1  0
 29 30  1  0
 30 31  1  0
 30 35  2  0
 31 32  1  0
 31 33  1  0
 33 34  2  0
 34 35  1  0
 35 36  1  0
 36 37  2  0
M  CHG  1   4   1
M  END
$$$$
