
     RDKit          3D

 37 42  0  0  0  0  0  0  0  0999 V2000
   84.5872   46.1961  267.8775 C   0  0  0  0  0  0  0  0  0  0  0  0
   83.1632   45.7987  268.0776 C   0  0  0  0  0  0  0  0  0  0  0  0
   82.9339   44.7155  269.0817 C   0  0  0  0  0  0  0  0  0  0  0  0
   84.1136   43.9089  269.3379 N   0  0  2  0  0  4  0  0  0  0  0  0
   84.8599   44.4585  270.4315 C   0  0  0  0  0  0  0  0  0  0  0  0
   84.8759   43.7490  268.1124 C   0  0  0  0  0  0  0  0  0  0  0  0
   85.5692   45.0962  267.9023 C   0  0  1  0  0  0  0  0  0  0  0  0
   86.4322   45.1288  266.7687 N   0  0  0  0  0  0  0  0  0  0  0  0
   87.2003   46.2732  266.4651 C   0  0  0  0  0  0  0  0  0  0  0  0
   86.9927   47.2992  267.1024 O   0  0  0  0  0  0  0  0  0  0  0  0
   88.1869   46.1541  265.4345 C   0  0  0  0  0  0  0  0  0  0  0  0
   87.9373   45.2796  264.3643 C   0  0  0  0  0  0  0  0  0  0  0  0
   88.7598   45.2179  263.2670 C   0  0  0  0  0  0  0  0  0  0  0  0
   89.8400   45.9994  263.1796 N   0  0  0  0  0  0  0  0  0  0  0  0
   90.1029   46.8489  264.2014 C   0  0  0  0  0  0  0  0  0  0  0  0
   89.2953   46.9394  265.3331 C   0  0  0  0  0  0  0  0  0  0  0  0
   89.7003   47.6669  266.4789 N   0  0  0  0  0  0  0  0  0  0  0  0
   91.0824   48.0275  266.6382 C   0  0  0  0  0  0  0  0  0  0  0  0
   91.4760   49.2476  267.1907 C   0  0  0  0  0  0  0  0  0  0  0  0
   92.1090   47.1579  266.3227 C   0  0  0  0  0  0  0  0  0  0  0  0
   93.4455   47.4158  266.5098 C   0  0  0  0  0  0  0  0  0  0  0  0
   94.4059   46.5204  266.1722 N   0  0  0  0  0  0  0  0  0  0  0  0
   95.7137   46.7835  266.3586 C   0  0  0  0  0  0  0  0  0  0  0  0
   96.0956   47.9905  266.9043 C   0  0  0  0  0  0  0  0  0  0  0  0
   95.1152   48.8742  267.2372 N   0  0  0  0  0  0  0  0  0  0  0  0
   93.8060   48.6150  267.0526 C   0  0  0  0  0  0  0  0  0  0  0  0
   92.8112   49.5286  267.3935 C   0  0  0  0  0  0  0  0  0  0  0  0
   93.2895   50.7603  268.0580 C   0  0  0  0  0  0  0  0  0  0  0  0
   92.3090   51.6128  268.6023 C   0  0  0  0  0  0  0  0  0  0  0  0
   92.6587   52.7792  269.2342 C   0  0  0  0  0  0  0  0  0  0  0  0
   91.9420   53.7691  269.8406 N   0  0  0  0  0  0  0  0  0  0  0  0
   90.4695   53.6899  269.8959 C   0  0  0  0  0  0  0  0  0  0  0  0
   92.7390   54.7137  270.3167 C   0  0  0  0  0  0  0  0  0  0  0  0
   94.0520   54.3796  270.0375 C   0  0  0  0  0  0  0  0  0  0  0  0
   93.9812   53.1811  269.3698 C   0  0  0  0  0  0  0  0  0  0  0  0
   94.9509   52.3279  268.8270 C   0  0  0  0  0  0  0  0  0  0  0  0
   94.5736   51.1401  268.1860 C   0  0  0  0  0  0  0  0  0  0  0  0
  1  2  1  0
  1  7  1  0
  2  3  1  0
  3  4  1  0
  4  5  1  1
  4  6  1  0
  6  7  1  0
  7  8  1  6
  8  9  1  0
  9 10  2  0
  9 11  1  0
 11 12  2  0
 11 16  1  0
 12 13  1  0
 13 14  2  0
 14 15  1  0
 15 16  2  0
 16 17  1  0
 17 18  1  0
 18 19  2  0
 18 20  1  0
 19 27  1  0
 20 21  2  0
 21 22  1  0
 21 26  1  0
 22 23  2  0
 23 24  1  0
 24 25  2  0
 25 26  1  0
 26 27  2  0
 27 28  1  0
 28 29  2  0
 28 37  1  0
 29 30  1  0
 30 31  1  0
 30 35  2  0
 31 32  1  0
 31 33  1  0
 33 34  2  0
 34 35  1  0
 35 36  1  0
 36 37  2  0
M  CHG  1   4   1
M  END
$$$$
