
     RDKit          3D

 37 42  0  0  0  0  0  0  0  0999 V2000
   84.7912   46.2978  267.7142 C   0  0  0  0  0  0  0  0  0  0  0  0
   83.3534   45.9179  267.8332 C   0  0  0  0  0  0  0  0  0  0  0  0
   83.0520   44.8517  268.8364 C   0  0  0  0  0  0  0  0  0  0  0  0
   84.2051   44.0369  269.1746 N   0  0  2  0  0  4  0  0  0  0  0  0
   84.8900   44.5945  270.3036 C   0  0  0  0  0  0  0  0  0  0  0  0
   85.0382   43.8515  267.9998 C   0  0  0  0  0  0  0  0  0  0  0  0
   85.7577   45.1884  267.8135 C   0  0  1  0  0  0  0  0  0  0  0  0
   86.6879   45.1958  266.7339 N   0  0  0  0  0  0  0  0  0  0  0  0
   87.2788   46.3959  266.2839 C   0  0  0  0  0  0  0  0  0  0  0  0
   86.8782   47.4541  266.7549 O   0  0  0  0  0  0  0  0  0  0  0  0
   88.3234   46.2950  265.3100 C   0  0  0  0  0  0  0  0  0  0  0  0
   88.1054   45.5017  264.1718 C   0  0  0  0  0  0  0  0  0  0  0  0
   88.9932   45.4700  263.1252 C   0  0  0  0  0  0  0  0  0  0  0  0
   90.1095   46.2038  263.1553 N   0  0  0  0  0  0  0  0  0  0  0  0
   90.3426   46.9745  264.2444 C   0  0  0  0  0  0  0  0  0  0  0  0
   89.4688   47.0321  265.3281 C   0  0  0  0  0  0  0  0  0  0  0  0
   89.8304   47.6668  266.5416 N   0  0  0  0  0  0  0  0  0  0  0  0
   91.1975   48.0529  266.7602 C   0  0  0  0  0  0  0  0  0  0  0  0
   91.5486   49.3181  267.2341 C   0  0  0  0  0  0  0  0  0  0  0  0
   92.2464   47.1704  266.5851 C   0  0  0  0  0  0  0  0  0  0  0  0
   93.5667   47.4559  266.8368 C   0  0  0  0  0  0  0  0  0  0  0  0
   94.5511   46.5453  266.6378 N   0  0  0  0  0  0  0  0  0  0  0  0
   95.8427   46.8357  266.8864 C   0  0  0  0  0  0  0  0  0  0  0  0
   96.1825   48.0873  267.3540 C   0  0  0  0  0  0  0  0  0  0  0  0
   95.1784   48.9857  267.5482 N   0  0  0  0  0  0  0  0  0  0  0  0
   93.8854   48.6993  267.3009 C   0  0  0  0  0  0  0  0  0  0  0  0
   92.8663   49.6280  267.4995 C   0  0  0  0  0  0  0  0  0  0  0  0
   93.2944   50.9148  268.0895 C   0  0  0  0  0  0  0  0  0  0  0  0
   92.5952   51.3575  269.2294 C   0  0  0  0  0  0  0  0  0  0  0  0
   92.9201   52.5410  269.8424 C   0  0  0  0  0  0  0  0  0  0  0  0
   92.4292   53.1990  270.9321 N   0  0  0  0  0  0  0  0  0  0  0  0
   91.3102   52.6234  271.7029 C   0  0  0  0  0  0  0  0  0  0  0  0
   93.0809   54.3331  271.1397 C   0  0  0  0  0  0  0  0  0  0  0  0
   94.0565   54.4773  270.1698 C   0  0  0  0  0  0  0  0  0  0  0  0
   93.9418   53.3597  269.3791 C   0  0  0  0  0  0  0  0  0  0  0  0
   94.6335   52.9128  268.2456 C   0  0  0  0  0  0  0  0  0  0  0  0
   94.2872   51.7002  267.6342 C   0  0  0  0  0  0  0  0  0  0  0  0
  1  2  1  0
  1  7  1  0
  2  3  1  0
  3  4  1  0
  4  5  1  1
  4  6  1  0
  6  7  1  0
  7  8  1  6
  8  9  1  0
  9 10  2  0
  9 11  1  0
 11 12  2  0
 11 16  1  0
 12 13  1  0
 13 14  2  0
 14 15  1  0
 15 16  2  0
 16 17  1  0
 17 18  1  0
 18 19  2  0
 18 20  1  0
 19 27  1  0
 20 21  2  0
 21 22  1  0
 21 26  1  0
 22 23  2  0
 23 24  1  0
 24 25  2  0
 25 26  1  0
 26 27  2  0
 27 28  1  0
 28 29  2  0
 28 37  1  0
 29 30  1  0
 30 31  1  0
 30 35  2  0
 31 32  1  0
 31 33  1  0
 33 34  2  0
 34 35  1  0
 35 36  1  0
 36 37  2  0
M  CHG  1   4   1
M  END
$$$$
