
     RDKit          3D

 37 42  0  0  0  0  0  0  0  0999 V2000
   84.3712   47.0624  267.3453 C   0  0  0  0  0  0  0  0  0  0  0  0
   82.9438   46.6721  267.5352 C   0  0  0  0  0  0  0  0  0  0  0  0
   82.6572   45.8607  268.7572 C   0  0  0  0  0  0  0  0  0  0  0  0
   83.8285   45.1875  269.2890 N   0  0  2  0  0  4  0  0  0  0  0  0
   84.4754   46.0170  270.2629 C   0  0  0  0  0  0  0  0  0  0  0  0
   84.6880   44.7609  268.1992 C   0  0  0  0  0  0  0  0  0  0  0  0
   85.3694   46.0408  267.7121 C   0  0  1  0  0  0  0  0  0  0  0  0
   86.3183   45.8270  266.6705 N   0  0  0  0  0  0  0  0  0  0  0  0
   87.2293   46.8358  266.2908 C   0  0  0  0  0  0  0  0  0  0  0  0
   87.0742   47.9622  266.7482 O   0  0  0  0  0  0  0  0  0  0  0  0
   88.2894   46.4697  265.4008 C   0  0  0  0  0  0  0  0  0  0  0  0
   88.0274   45.5201  264.3998 C   0  0  0  0  0  0  0  0  0  0  0  0
   88.9411   45.2248  263.4189 C   0  0  0  0  0  0  0  0  0  0  0  0
   90.1265   45.8404  263.3833 N   0  0  0  0  0  0  0  0  0  0  0  0
   90.4028   46.7582  264.3405 C   0  0  0  0  0  0  0  0  0  0  0  0
   89.5045   47.0837  265.3544 C   0  0  0  0  0  0  0  0  0  0  0  0
   89.8901   47.8765  266.4630 N   0  0  0  0  0  0  0  0  0  0  0  0
   91.2760   48.2083  266.6497 C   0  0  0  0  0  0  0  0  0  0  0  0
   91.6870   49.4535  267.1286 C   0  0  0  0  0  0  0  0  0  0  0  0
   92.2859   47.2893  266.4371 C   0  0  0  0  0  0  0  0  0  0  0  0
   93.6221   47.5219  266.6571 C   0  0  0  0  0  0  0  0  0  0  0  0
   94.5659   46.5774  266.4218 N   0  0  0  0  0  0  0  0  0  0  0  0
   95.8735   46.8160  266.6396 C   0  0  0  0  0  0  0  0  0  0  0  0
   96.2725   48.0481  267.1123 C   0  0  0  0  0  0  0  0  0  0  0  0
   95.3085   48.9811  267.3430 N   0  0  0  0  0  0  0  0  0  0  0  0
   93.9996   48.7466  267.1266 C   0  0  0  0  0  0  0  0  0  0  0  0
   93.0219   49.7104  267.3626 C   0  0  0  0  0  0  0  0  0  0  0  0
   93.5136   50.9729  267.9556 C   0  0  0  0  0  0  0  0  0  0  0  0
   92.8604   51.4282  269.1177 C   0  0  0  0  0  0  0  0  0  0  0  0
   93.2457   52.5911  269.7352 C   0  0  0  0  0  0  0  0  0  0  0  0
   92.8076   53.2542  270.8441 N   0  0  0  0  0  0  0  0  0  0  0  0
   91.6868   52.7126  271.6365 C   0  0  0  0  0  0  0  0  0  0  0  0
   93.5073   54.3602  271.0476 C   0  0  0  0  0  0  0  0  0  0  0  0
   94.4633   54.4787  270.0549 C   0  0  0  0  0  0  0  0  0  0  0  0
   94.2862   53.3757  269.2552 C   0  0  0  0  0  0  0  0  0  0  0  0
   94.9318   52.9163  268.0998 C   0  0  0  0  0  0  0  0  0  0  0  0
   94.5242   51.7252  267.4840 C   0  0  0  0  0  0  0  0  0  0  0  0
  1  2  1  0
  1  7  1  0
  2  3  1  0
  3  4  1  0
  4  5  1  1
  4  6  1  0
  6  7  1  0
  7  8  1  6
  8  9  1  0
  9 10  2  0
  9 11  1  0
 11 12  2  0
 11 16  1  0
 12 13  1  0
 13 14  2  0
 14 15  1  0
 15 16  2  0
 16 17  1  0
 17 18  1  0
 18 19  2  0
 18 20  1  0
 19 27  1  0
 20 21  2  0
 21 22  1  0
 21 26  1  0
 22 23  2  0
 23 24  1  0
 24 25  2  0
 25 26  1  0
 26 27  2  0
 27 28  1  0
 28 29  2  0
 28 37  1  0
 29 30  1  0
 30 31  1  0
 30 35  2  0
 31 32  1  0
 31 33  1  0
 33 34  2  0
 34 35  1  0
 35 36  1  0
 36 37  2  0
M  CHG  1   4   1
M  END
$$$$
