
     RDKit          3D

 37 42  0  0  0  0  0  0  0  0999 V2000
   84.8245   46.0726  267.2822 C   0  0  0  0  0  0  0  0  0  0  0  0
   83.5281   45.3754  267.5255 C   0  0  0  0  0  0  0  0  0  0  0  0
   83.4687   44.5452  268.7670 C   0  0  0  0  0  0  0  0  0  0  0  0
   84.7772   44.1634  269.2673 N   0  0  2  0  0  4  0  0  0  0  0  0
   85.2498   45.1366  270.2078 C   0  0  0  0  0  0  0  0  0  0  0  0
   85.6773   43.9188  268.1545 C   0  0  0  0  0  0  0  0  0  0  0  0
   86.0377   45.3089  267.6279 C   0  0  1  0  0  0  0  0  0  0  0  0
   86.9784   45.2929  266.5576 N   0  0  0  0  0  0  0  0  0  0  0  0
   87.4216   46.4889  265.9533 C   0  0  0  0  0  0  0  0  0  0  0  0
   86.9090   47.5443  266.3073 O   0  0  0  0  0  0  0  0  0  0  0  0
   88.4573   46.3895  264.9698 C   0  0  0  0  0  0  0  0  0  0  0  0
   88.2931   45.4806  263.9118 C   0  0  0  0  0  0  0  0  0  0  0  0
   89.1656   45.4300  262.8532 C   0  0  0  0  0  0  0  0  0  0  0  0
   90.2142   46.2560  262.7934 N   0  0  0  0  0  0  0  0  0  0  0  0
   90.3947   47.1393  263.8043 C   0  0  0  0  0  0  0  0  0  0  0  0
   89.5345   47.2202  264.8973 C   0  0  0  0  0  0  0  0  0  0  0  0
   89.8566   47.9907  266.0413 N   0  0  0  0  0  0  0  0  0  0  0  0
   91.2254   48.3503  266.2918 C   0  0  0  0  0  0  0  0  0  0  0  0
   91.5856   49.5892  266.8247 C   0  0  0  0  0  0  0  0  0  0  0  0
   92.2659   47.4636  266.0902 C   0  0  0  0  0  0  0  0  0  0  0  0
   93.5864   47.7217  266.3690 C   0  0  0  0  0  0  0  0  0  0  0  0
   94.5624   46.8087  266.1413 N   0  0  0  0  0  0  0  0  0  0  0  0
   95.8542   47.0722  266.4170 C   0  0  0  0  0  0  0  0  0  0  0  0
   96.2031   48.2979  266.9428 C   0  0  0  0  0  0  0  0  0  0  0  0
   95.2074   49.1991  267.1648 N   0  0  0  0  0  0  0  0  0  0  0  0
   93.9141   48.9396  266.8906 C   0  0  0  0  0  0  0  0  0  0  0  0
   92.9036   49.8712  267.1183 C   0  0  0  0  0  0  0  0  0  0  0  0
   93.3398   51.1257  267.7688 C   0  0  0  0  0  0  0  0  0  0  0  0
   92.6359   51.5237  268.9223 C   0  0  0  0  0  0  0  0  0  0  0  0
   92.9677   52.6750  269.5904 C   0  0  0  0  0  0  0  0  0  0  0  0
   92.4747   53.2883  270.7049 N   0  0  0  0  0  0  0  0  0  0  0  0
   91.3440   52.6901  271.4406 C   0  0  0  0  0  0  0  0  0  0  0  0
   93.1359   54.4052  270.9683 C   0  0  0  0  0  0  0  0  0  0  0  0
   94.1206   54.5829  270.0132 C   0  0  0  0  0  0  0  0  0  0  0  0
   94.0011   53.5032  269.1721 C   0  0  0  0  0  0  0  0  0  0  0  0
   94.6973   53.1007  268.0249 C   0  0  0  0  0  0  0  0  0  0  0  0
   94.3438   51.9205  267.3568 C   0  0  0  0  0  0  0  0  0  0  0  0
  1  2  1  0
  1  7  1  0
  2  3  1  0
  3  4  1  0
  4  5  1  1
  4  6  1  0
  6  7  1  0
  7  8  1  6
  8  9  1  0
  9 10  2  0
  9 11  1  0
 11 12  2  0
 11 16  1  0
 12 13  1  0
 13 14  2  0
 14 15  1  0
 15 16  2  0
 16 17  1  0
 17 18  1  0
 18 19  2  0
 18 20  1  0
 19 27  1  0
 20 21  2  0
 21 22  1  0
 21 26  1  0
 22 23  2  0
 23 24  1  0
 24 25  2  0
 25 26  1  0
 26 27  2  0
 27 28  1  0
 28 29  2  0
 28 37  1  0
 29 30  1  0
 30 31  1  0
 30 35  2  0
 31 32  1  0
 31 33  1  0
 33 34  2  0
 34 35  1  0
 35 36  1  0
 36 37  2  0
M  CHG  1   4   1
M  END
$$$$
