
     RDKit          3D

 37 42  0  0  0  0  0  0  0  0999 V2000
   84.6590   46.2394  267.0639 C   0  0  0  0  0  0  0  0  0  0  0  0
   83.3577   45.5651  267.3428 C   0  0  0  0  0  0  0  0  0  0  0  0
   83.1463   45.1383  268.7595 C   0  0  0  0  0  0  0  0  0  0  0  0
   84.3814   45.0056  269.5112 N   0  0  2  0  0  4  0  0  0  0  0  0
   84.6972   46.2419  270.1647 C   0  0  0  0  0  0  0  0  0  0  0  0
   85.4321   44.4997  268.6459 C   0  0  0  0  0  0  0  0  0  0  0  0
   85.8300   45.6911  267.7731 C   0  0  1  0  0  0  0  0  0  0  0  0
   86.9096   45.4180  266.8839 N   0  0  0  0  0  0  0  0  0  0  0  0
   87.5919   46.4587  266.2181 C   0  0  0  0  0  0  0  0  0  0  0  0
   87.1433   47.5961  266.3028 O   0  0  0  0  0  0  0  0  0  0  0  0
   88.7785   46.1155  265.4942 C   0  0  0  0  0  0  0  0  0  0  0  0
   88.7900   44.9241  264.7506 C   0  0  0  0  0  0  0  0  0  0  0  0
   89.8287   44.5973  263.9148 C   0  0  0  0  0  0  0  0  0  0  0  0
   90.8776   45.4139  263.7788 N   0  0  0  0  0  0  0  0  0  0  0  0
   90.8901   46.5674  264.4886 C   0  0  0  0  0  0  0  0  0  0  0  0
   89.8578   46.9340  265.3495 C   0  0  0  0  0  0  0  0  0  0  0  0
   89.9865   48.0265  266.2416 N   0  0  0  0  0  0  0  0  0  0  0  0
   91.2952   48.5100  266.5867 C   0  0  0  0  0  0  0  0  0  0  0  0
   91.4872   49.6043  267.4320 C   0  0  0  0  0  0  0  0  0  0  0  0
   92.4474   47.8758  266.1626 C   0  0  0  0  0  0  0  0  0  0  0  0
   93.7243   48.2479  266.5077 C   0  0  0  0  0  0  0  0  0  0  0  0
   94.8157   47.5858  266.0512 N   0  0  0  0  0  0  0  0  0  0  0  0
   96.0633   47.9595  266.3945 C   0  0  0  0  0  0  0  0  0  0  0  0
   96.2458   49.0413  267.2293 C   0  0  0  0  0  0  0  0  0  0  0  0
   95.1365   49.6908  267.6772 N   0  0  0  0  0  0  0  0  0  0  0  0
   93.8869   49.3202  267.3363 C   0  0  0  0  0  0  0  0  0  0  0  0
   92.7587   49.9948  267.7976 C   0  0  0  0  0  0  0  0  0  0  0  0
   93.0276   51.0844  268.7608 C   0  0  0  0  0  0  0  0  0  0  0  0
   92.3503   52.3017  268.5515 C   0  0  0  0  0  0  0  0  0  0  0  0
   92.5397   53.3693  269.3921 C   0  0  0  0  0  0  0  0  0  0  0  0
   92.0299   54.6341  269.4319 N   0  0  0  0  0  0  0  0  0  0  0  0
   91.0598   55.0741  268.4107 C   0  0  0  0  0  0  0  0  0  0  0  0
   92.5234   55.3168  270.4539 C   0  0  0  0  0  0  0  0  0  0  0  0
   93.4045   54.5108  271.1519 C   0  0  0  0  0  0  0  0  0  0  0  0
   93.3996   53.3118  270.4811 C   0  0  0  0  0  0  0  0  0  0  0  0
   94.0691   52.0979  270.6836 C   0  0  0  0  0  0  0  0  0  0  0  0
   93.8614   51.0183  269.8144 C   0  0  0  0  0  0  0  0  0  0  0  0
  1  2  1  0
  1  7  1  0
  2  3  1  0
  3  4  1  0
  4  5  1  6
  4  6  1  0
  6  7  1  0
  7  8  1  6
  8  9  1  0
  9 10  2  0
  9 11  1  0
 11 12  2  0
 11 16  1  0
 12 13  1  0
 13 14  2  0
 14 15  1  0
 15 16  2  0
 16 17  1  0
 17 18  1  0
 18 19  2  0
 18 20  1  0
 19 27  1  0
 20 21  2  0
 21 22  1  0
 21 26  1  0
 22 23  2  0
 23 24  1  0
 24 25  2  0
 25 26  1  0
 26 27  2  0
 27 28  1  0
 28 29  2  0
 28 37  1  0
 29 30  1  0
 30 31  1  0
 30 35  2  0
 31 32  1  0
 31 33  1  0
 33 34  2  0
 34 35  1  0
 35 36  1  0
 36 37  2  0
M  CHG  1   4   1
M  END
$$$$
