
     RDKit          3D

 37 42  0  0  0  0  0  0  0  0999 V2000
   84.5467   46.5037  267.7504 C   0  0  0  0  0  0  0  0  0  0  0  0
   83.1112   46.1295  267.9086 C   0  0  0  0  0  0  0  0  0  0  0  0
   82.8236   45.1247  268.9771 C   0  0  0  0  0  0  0  0  0  0  0  0
   83.9822   44.3331  269.3498 N   0  0  2  0  0  4  0  0  0  0  0  0
   84.6790   44.9582  270.4356 C   0  0  0  0  0  0  0  0  0  0  0  0
   84.8021   44.0791  268.1786 C   0  0  0  0  0  0  0  0  0  0  0  0
   85.5166   45.4036  267.9045 C   0  0  1  0  0  0  0  0  0  0  0  0
   86.4342   45.3478  266.8156 N   0  0  0  0  0  0  0  0  0  0  0  0
   87.1258   46.4986  266.3803 C   0  0  0  0  0  0  0  0  0  0  0  0
   86.8249   47.5796  266.8734 O   0  0  0  0  0  0  0  0  0  0  0  0
   88.1490   46.3228  265.3944 C   0  0  0  0  0  0  0  0  0  0  0  0
   87.9399   45.3851  264.3701 C   0  0  0  0  0  0  0  0  0  0  0  0
   88.8013   45.2620  263.3084 C   0  0  0  0  0  0  0  0  0  0  0  0
   89.8821   46.0418  263.2131 N   0  0  0  0  0  0  0  0  0  0  0  0
   90.1062   46.9517  264.1911 C   0  0  0  0  0  0  0  0  0  0  0  0
   89.2584   47.1058  265.2859 C   0  0  0  0  0  0  0  0  0  0  0  0
   89.6203   47.9019  266.4001 N   0  0  0  0  0  0  0  0  0  0  0  0
   91.0061   48.1986  266.6396 C   0  0  0  0  0  0  0  0  0  0  0  0
   91.4299   49.4331  267.1347 C   0  0  0  0  0  0  0  0  0  0  0  0
   91.9998   47.2543  266.4648 C   0  0  0  0  0  0  0  0  0  0  0  0
   93.3321   47.4530  266.7355 C   0  0  0  0  0  0  0  0  0  0  0  0
   94.2599   46.4850  266.5355 N   0  0  0  0  0  0  0  0  0  0  0  0
   95.5640   46.6905  266.8029 C   0  0  0  0  0  0  0  0  0  0  0  0
   95.9757   47.9121  267.2914 C   0  0  0  0  0  0  0  0  0  0  0  0
   95.0276   48.8693  267.4861 N   0  0  0  0  0  0  0  0  0  0  0  0
   93.7224   48.6679  267.2200 C   0  0  0  0  0  0  0  0  0  0  0  0
   92.7610   49.6562  267.4195 C   0  0  0  0  0  0  0  0  0  0  0  0
   93.2617   50.9059  268.0317 C   0  0  0  0  0  0  0  0  0  0  0  0
   92.5934   51.3632  269.1844 C   0  0  0  0  0  0  0  0  0  0  0  0
   92.9854   52.5150  269.8183 C   0  0  0  0  0  0  0  0  0  0  0  0
   92.5366   53.1769  270.9236 N   0  0  0  0  0  0  0  0  0  0  0  0
   91.3919   52.6479  271.6899 C   0  0  0  0  0  0  0  0  0  0  0  0
   93.2502   54.2697  271.1493 C   0  0  0  0  0  0  0  0  0  0  0  0
   94.2272   54.3798  270.1763 C   0  0  0  0  0  0  0  0  0  0  0  0
   94.0478   53.2859  269.3647 C   0  0  0  0  0  0  0  0  0  0  0  0
   94.7083   52.8246  268.2185 C   0  0  0  0  0  0  0  0  0  0  0  0
   94.2934   51.6450  267.5857 C   0  0  0  0  0  0  0  0  0  0  0  0
  1  2  1  0
  1  7  1  0
  2  3  1  0
  3  4  1  0
  4  5  1  1
  4  6  1  0
  6  7  1  0
  7  8  1  6
  8  9  1  0
  9 10  2  0
  9 11  1  0
 11 12  2  0
 11 16  1  0
 12 13  1  0
 13 14  2  0
 14 15  1  0
 15 16  2  0
 16 17  1  0
 17 18  1  0
 18 19  2  0
 18 20  1  0
 19 27  1  0
 20 21  2  0
 21 22  1  0
 21 26  1  0
 22 23  2  0
 23 24  1  0
 24 25  2  0
 25 26  1  0
 26 27  2  0
 27 28  1  0
 28 29  2  0
 28 37  1  0
 29 30  1  0
 30 31  1  0
 30 35  2  0
 31 32  1  0
 31 33  1  0
 33 34  2  0
 34 35  1  0
 35 36  1  0
 36 37  2  0
M  CHG  1   4   1
M  END
$$$$
