
     RDKit          3D

 37 42  0  0  0  0  0  0  0  0999 V2000
   84.5917   46.5664  267.9581 C   0  0  0  0  0  0  0  0  0  0  0  0
   83.1047   46.4697  268.0297 C   0  0  0  0  0  0  0  0  0  0  0  0
   82.5734   45.2979  268.7903 C   0  0  0  0  0  0  0  0  0  0  0  0
   83.5299   44.2130  268.9183 N   0  0  2  0  0  4  0  0  0  0  0  0
   84.2922   44.3661  270.1226 C   0  0  0  0  0  0  0  0  0  0  0  0
   84.3300   44.1176  267.7104 C   0  0  0  0  0  0  0  0  0  0  0  0
   85.3101   45.2889  267.7947 C   0  0  1  0  0  0  0  0  0  0  0  0
   86.2427   45.3376  266.7183 N   0  0  0  0  0  0  0  0  0  0  0  0
   87.2951   46.2780  266.7025 C   0  0  0  0  0  0  0  0  0  0  0  0
   87.3043   47.1555  267.5580 O   0  0  0  0  0  0  0  0  0  0  0  0
   88.2959   46.1344  265.6887 C   0  0  0  0  0  0  0  0  0  0  0  0
   88.1047   45.1667  264.6891 C   0  0  0  0  0  0  0  0  0  0  0  0
   88.9390   45.0660  263.6037 C   0  0  0  0  0  0  0  0  0  0  0  0
   89.9749   45.8978  263.4602 N   0  0  0  0  0  0  0  0  0  0  0  0
   90.1811   46.8376  264.4136 C   0  0  0  0  0  0  0  0  0  0  0  0
   89.3598   46.9705  265.5312 C   0  0  0  0  0  0  0  0  0  0  0  0
   89.7136   47.8065  266.6184 N   0  0  0  0  0  0  0  0  0  0  0  0
   91.0969   48.1190  266.8520 C   0  0  0  0  0  0  0  0  0  0  0  0
   91.5097   49.3629  267.3326 C   0  0  0  0  0  0  0  0  0  0  0  0
   92.0992   47.1823  266.6858 C   0  0  0  0  0  0  0  0  0  0  0  0
   93.4300   47.3968  266.9518 C   0  0  0  0  0  0  0  0  0  0  0  0
   94.3667   46.4354  266.7609 N   0  0  0  0  0  0  0  0  0  0  0  0
   95.6692   46.6563  267.0236 C   0  0  0  0  0  0  0  0  0  0  0  0
   96.0701   47.8872  267.4976 C   0  0  0  0  0  0  0  0  0  0  0  0
   95.1132   48.8374  267.6834 N   0  0  0  0  0  0  0  0  0  0  0  0
   93.8095   48.6206  267.4221 C   0  0  0  0  0  0  0  0  0  0  0  0
   92.8392   49.6018  267.6123 C   0  0  0  0  0  0  0  0  0  0  0  0
   93.3289   50.8630  268.2097 C   0  0  0  0  0  0  0  0  0  0  0  0
   92.6430   51.3394  269.3442 C   0  0  0  0  0  0  0  0  0  0  0  0
   93.0241   52.5029  269.9633 C   0  0  0  0  0  0  0  0  0  0  0  0
   92.5581   53.1835  271.0501 N   0  0  0  0  0  0  0  0  0  0  0  0
   91.4030   52.6661  271.8087 C   0  0  0  0  0  0  0  0  0  0  0  0
   93.2667   54.2812  271.2668 C   0  0  0  0  0  0  0  0  0  0  0  0
   94.2578   54.3758  270.3066 C   0  0  0  0  0  0  0  0  0  0  0  0
   94.0919   53.2675  269.5119 C   0  0  0  0  0  0  0  0  0  0  0  0
   94.7698   52.7872  268.3838 C   0  0  0  0  0  0  0  0  0  0  0  0
   94.3660   51.5959  267.7659 C   0  0  0  0  0  0  0  0  0  0  0  0
  1  2  1  0
  1  7  1  0
  2  3  1  0
  3  4  1  0
  4  5  1  1
  4  6  1  0
  6  7  1  0
  7  8  1  6
  8  9  1  0
  9 10  2  0
  9 11  1  0
 11 12  2  0
 11 16  1  0
 12 13  1  0
 13 14  2  0
 14 15  1  0
 15 16  2  0
 16 17  1  0
 17 18  1  0
 18 19  2  0
 18 20  1  0
 19 27  1  0
 20 21  2  0
 21 22  1  0
 21 26  1  0
 22 23  2  0
 23 24  1  0
 24 25  2  0
 25 26  1  0
 26 27  2  0
 27 28  1  0
 28 29  2  0
 28 37  1  0
 29 30  1  0
 30 31  1  0
 30 35  2  0
 31 32  1  0
 31 33  1  0
 33 34  2  0
 34 35  1  0
 35 36  1  0
 36 37  2  0
M  CHG  1   4   1
M  END
$$$$
