
     RDKit          3D

 37 42  0  0  0  0  0  0  0  0999 V2000
   84.5622   46.0253  267.3011 C   0  0  0  0  0  0  0  0  0  0  0  0
   83.2924   45.3000  267.5966 C   0  0  0  0  0  0  0  0  0  0  0  0
   83.2774   44.5268  268.8756 C   0  0  0  0  0  0  0  0  0  0  0  0
   84.6044   44.2096  269.3722 N   0  0  2  0  0  4  0  0  0  0  0  0
   85.0591   45.2396  270.2595 C   0  0  0  0  0  0  0  0  0  0  0  0
   85.4958   43.9420  268.2577 C   0  0  0  0  0  0  0  0  0  0  0  0
   85.8041   45.3169  267.6623 C   0  0  1  0  0  0  0  0  0  0  0  0
   86.7294   45.2806  266.5790 N   0  0  0  0  0  0  0  0  0  0  0  0
   87.3967   46.4464  266.1460 C   0  0  0  0  0  0  0  0  0  0  0  0
   87.0743   47.5197  266.6419 O   0  0  0  0  0  0  0  0  0  0  0  0
   88.4225   46.2940  265.1588 C   0  0  0  0  0  0  0  0  0  0  0  0
   88.2378   45.3450  264.1401 C   0  0  0  0  0  0  0  0  0  0  0  0
   89.1002   45.2403  263.0772 C   0  0  0  0  0  0  0  0  0  0  0  0
   90.1584   46.0497  262.9752 N   0  0  0  0  0  0  0  0  0  0  0  0
   90.3587   46.9711  263.9477 C   0  0  0  0  0  0  0  0  0  0  0  0
   89.5092   47.1072  265.0435 C   0  0  0  0  0  0  0  0  0  0  0  0
   89.8508   47.9195  266.1525 N   0  0  0  0  0  0  0  0  0  0  0  0
   91.2313   48.2275  266.4074 C   0  0  0  0  0  0  0  0  0  0  0  0
   91.6355   49.4505  266.9457 C   0  0  0  0  0  0  0  0  0  0  0  0
   92.2390   47.3039  266.2048 C   0  0  0  0  0  0  0  0  0  0  0  0
   93.5674   47.5123  266.4875 C   0  0  0  0  0  0  0  0  0  0  0  0
   94.5097   46.5649  266.2587 N   0  0  0  0  0  0  0  0  0  0  0  0
   95.8097   46.7797  266.5382 C   0  0  0  0  0  0  0  0  0  0  0  0
   96.2022   47.9899  267.0693 C   0  0  0  0  0  0  0  0  0  0  0  0
   95.2397   48.9263  267.2924 N   0  0  0  0  0  0  0  0  0  0  0  0
   93.9385   48.7155  267.0144 C   0  0  0  0  0  0  0  0  0  0  0  0
   92.9624   49.6827  267.2432 C   0  0  0  0  0  0  0  0  0  0  0  0
   93.4428   50.9180  267.8994 C   0  0  0  0  0  0  0  0  0  0  0  0
   92.7552   51.3340  269.0563 C   0  0  0  0  0  0  0  0  0  0  0  0
   93.1278   52.4697  269.7297 C   0  0  0  0  0  0  0  0  0  0  0  0
   92.6584   53.0938  270.8484 N   0  0  0  0  0  0  0  0  0  0  0  0
   91.5090   52.5312  271.5832 C   0  0  0  0  0  0  0  0  0  0  0  0
   93.3583   54.1858  271.1163 C   0  0  0  0  0  0  0  0  0  0  0  0
   94.3467   54.3344  270.1601 C   0  0  0  0  0  0  0  0  0  0  0  0
   94.1884   53.2639  269.3137 C   0  0  0  0  0  0  0  0  0  0  0  0
   94.8682   52.8436  268.1629 C   0  0  0  0  0  0  0  0  0  0  0  0
   94.4730   51.6798  267.4894 C   0  0  0  0  0  0  0  0  0  0  0  0
  1  2  1  0
  1  7  1  0
  2  3  1  0
  3  4  1  0
  4  5  1  6
  4  6  1  0
  6  7  1  0
  7  8  1  6
  8  9  1  0
  9 10  2  0
  9 11  1  0
 11 12  2  0
 11 16  1  0
 12 13  1  0
 13 14  2  0
 14 15  1  0
 15 16  2  0
 16 17  1  0
 17 18  1  0
 18 19  2  0
 18 20  1  0
 19 27  1  0
 20 21  2  0
 21 22  1  0
 21 26  1  0
 22 23  2  0
 23 24  1  0
 24 25  2  0
 25 26  1  0
 26 27  2  0
 27 28  1  0
 28 29  2  0
 28 37  1  0
 29 30  1  0
 30 31  1  0
 30 35  2  0
 31 32  1  0
 31 33  1  0
 33 34  2  0
 34 35  1  0
 35 36  1  0
 36 37  2  0
M  CHG  1   4   1
M  END
$$$$
