
     RDKit          3D

 37 42  0  0  0  0  0  0  0  0999 V2000
   84.5736   46.5168  267.4104 C   0  0  0  0  0  0  0  0  0  0  0  0
   83.1530   46.0687  267.4936 C   0  0  0  0  0  0  0  0  0  0  0  0
   82.8184   45.2102  268.6704 C   0  0  0  0  0  0  0  0  0  0  0  0
   83.9774   44.5643  269.2599 N   0  0  2  0  0  4  0  0  0  0  0  0
   84.5266   45.3866  270.2978 C   0  0  0  0  0  0  0  0  0  0  0  0
   84.9223   44.2032  268.2182 C   0  0  0  0  0  0  0  0  0  0  0  0
   85.5843   45.5216  267.8139 C   0  0  1  0  0  0  0  0  0  0  0  0
   86.6069   45.3749  266.8323 N   0  0  0  0  0  0  0  0  0  0  0  0
   87.3768   46.4781  266.4056 C   0  0  0  0  0  0  0  0  0  0  0  0
   87.0439   47.5980  266.7757 O   0  0  0  0  0  0  0  0  0  0  0  0
   88.5113   46.2116  265.5738 C   0  0  0  0  0  0  0  0  0  0  0  0
   88.5204   45.0342  264.8083 C   0  0  0  0  0  0  0  0  0  0  0  0
   89.4970   44.7776  263.8783 C   0  0  0  0  0  0  0  0  0  0  0  0
   90.4846   45.6525  263.6674 N   0  0  0  0  0  0  0  0  0  0  0  0
   90.4983   46.7941  264.3962 C   0  0  0  0  0  0  0  0  0  0  0  0
   89.5283   47.0902  265.3514 C   0  0  0  0  0  0  0  0  0  0  0  0
   89.6769   48.1745  266.2505 N   0  0  0  0  0  0  0  0  0  0  0  0
   90.9879   48.5344  266.7170 C   0  0  0  0  0  0  0  0  0  0  0  0
   91.2262   49.7012  267.4454 C   0  0  0  0  0  0  0  0  0  0  0  0
   92.0827   47.7105  266.5375 C   0  0  0  0  0  0  0  0  0  0  0  0
   93.3466   47.9648  267.0125 C   0  0  0  0  0  0  0  0  0  0  0  0
   94.3818   47.1166  266.7958 N   0  0  0  0  0  0  0  0  0  0  0  0
   95.6175   47.3760  267.2649 C   0  0  0  0  0  0  0  0  0  0  0  0
   95.8460   48.5302  267.9832 C   0  0  0  0  0  0  0  0  0  0  0  0
   94.7925   49.3671  268.1902 N   0  0  0  0  0  0  0  0  0  0  0  0
   93.5550   49.1114  267.7230 C   0  0  0  0  0  0  0  0  0  0  0  0
   92.4849   49.9771  267.9377 C   0  0  0  0  0  0  0  0  0  0  0  0
   92.7834   51.1458  268.7935 C   0  0  0  0  0  0  0  0  0  0  0  0
   93.7012   52.0877  268.2886 C   0  0  0  0  0  0  0  0  0  0  0  0
   94.0415   53.2015  269.0137 C   0  0  0  0  0  0  0  0  0  0  0  0
   94.8778   54.2538  268.7799 N   0  0  0  0  0  0  0  0  0  0  0  0
   95.6380   54.3295  267.5173 C   0  0  0  0  0  0  0  0  0  0  0  0
   94.8761   55.1014  269.7976 C   0  0  0  0  0  0  0  0  0  0  0  0
   94.0156   54.6327  270.7740 C   0  0  0  0  0  0  0  0  0  0  0  0
   93.5093   53.4592  270.2703 C   0  0  0  0  0  0  0  0  0  0  0  0
   92.5966   52.5187  270.7656 C   0  0  0  0  0  0  0  0  0  0  0  0
   92.2609   51.3876  270.0093 C   0  0  0  0  0  0  0  0  0  0  0  0
  1  2  1  0
  1  7  1  0
  2  3  1  0
  3  4  1  0
  4  5  1  1
  4  6  1  0
  6  7  1  0
  7  8  1  6
  8  9  1  0
  9 10  2  0
  9 11  1  0
 11 12  2  0
 11 16  1  0
 12 13  1  0
 13 14  2  0
 14 15  1  0
 15 16  2  0
 16 17  1  0
 17 18  1  0
 18 19  2  0
 18 20  1  0
 19 27  1  0
 20 21  2  0
 21 22  1  0
 21 26  1  0
 22 23  2  0
 23 24  1  0
 24 25  2  0
 25 26  1  0
 26 27  2  0
 27 28  1  0
 28 29  2  0
 28 37  1  0
 29 30  1  0
 30 31  1  0
 30 35  2  0
 31 32  1  0
 31 33  1  0
 33 34  2  0
 34 35  1  0
 35 36  1  0
 36 37  2  0
M  CHG  1   4   1
M  END
$$$$
