
     RDKit          3D

 37 42  0  0  0  0  0  0  0  0999 V2000
   84.1766   45.4884  267.2154 C   0  0  0  0  0  0  0  0  0  0  0  0
   83.1571   44.5603  267.7853 C   0  0  0  0  0  0  0  0  0  0  0  0
   83.2969   44.2710  269.2450 C   0  0  0  0  0  0  0  0  0  0  0  0
   84.6297   44.5316  269.7584 N   0  0  2  0  0  4  0  0  0  0  0  0
   84.7178   45.8775  270.2439 C   0  0  0  0  0  0  0  0  0  0  0  0
   85.6198   44.1915  268.7522 C   0  0  0  0  0  0  0  0  0  0  0  0
   85.5488   45.3282  267.7311 C   0  0  1  0  0  0  0  0  0  0  0  0
   86.5025   45.2164  266.6782 N   0  0  0  0  0  0  0  0  0  0  0  0
   87.0757   46.3611  266.0840 C   0  0  0  0  0  0  0  0  0  0  0  0
   86.6683   47.4633  266.4323 O   0  0  0  0  0  0  0  0  0  0  0  0
   88.1117   46.1568  265.1171 C   0  0  0  0  0  0  0  0  0  0  0  0
   87.9242   45.1758  264.1298 C   0  0  0  0  0  0  0  0  0  0  0  0
   88.7987   45.0192  263.0833 C   0  0  0  0  0  0  0  0  0  0  0  0
   89.8721   45.8066  262.9678 N   0  0  0  0  0  0  0  0  0  0  0  0
   90.0753   46.7581  263.9101 C   0  0  0  0  0  0  0  0  0  0  0  0
   89.2138   46.9471  264.9886 C   0  0  0  0  0  0  0  0  0  0  0  0
   89.5546   47.7920  266.0731 N   0  0  0  0  0  0  0  0  0  0  0  0
   90.9340   48.1175  266.3123 C   0  0  0  0  0  0  0  0  0  0  0  0
   91.3292   49.3473  266.8416 C   0  0  0  0  0  0  0  0  0  0  0  0
   91.9505   47.2052  266.1025 C   0  0  0  0  0  0  0  0  0  0  0  0
   93.2792   47.4305  266.3703 C   0  0  0  0  0  0  0  0  0  0  0  0
   94.2303   46.4935  266.1351 N   0  0  0  0  0  0  0  0  0  0  0  0
   95.5305   46.7250  266.4000 C   0  0  0  0  0  0  0  0  0  0  0  0
   95.9140   47.9418  266.9224 C   0  0  0  0  0  0  0  0  0  0  0  0
   94.9428   48.8675  267.1521 N   0  0  0  0  0  0  0  0  0  0  0  0
   93.6413   48.6401  266.8887 C   0  0  0  0  0  0  0  0  0  0  0  0
   92.6562   49.5965  267.1242 C   0  0  0  0  0  0  0  0  0  0  0  0
   93.1287   50.8400  267.7705 C   0  0  0  0  0  0  0  0  0  0  0  0
   92.4608   51.2420  268.9439 C   0  0  0  0  0  0  0  0  0  0  0  0
   92.8278   52.3838  269.6099 C   0  0  0  0  0  0  0  0  0  0  0  0
   92.3731   52.9980  270.7401 N   0  0  0  0  0  0  0  0  0  0  0  0
   91.2521   52.4132  271.5010 C   0  0  0  0  0  0  0  0  0  0  0  0
   93.0585   54.1027  270.9930 C   0  0  0  0  0  0  0  0  0  0  0  0
   94.0213   54.2706  270.0140 C   0  0  0  0  0  0  0  0  0  0  0  0
   93.8632   53.1982  269.1701 C   0  0  0  0  0  0  0  0  0  0  0  0
   94.5235   52.7917  268.0032 C   0  0  0  0  0  0  0  0  0  0  0  0
   94.1345   51.6214  267.3376 C   0  0  0  0  0  0  0  0  0  0  0  0
  1  2  1  0
  1  7  1  0
  2  3  1  0
  3  4  1  0
  4  5  1  6
  4  6  1  0
  6  7  1  0
  7  8  1  6
  8  9  1  0
  9 10  2  0
  9 11  1  0
 11 12  2  0
 11 16  1  0
 12 13  1  0
 13 14  2  0
 14 15  1  0
 15 16  2  0
 16 17  1  0
 17 18  1  0
 18 19  2  0
 18 20  1  0
 19 27  1  0
 20 21  2  0
 21 22  1  0
 21 26  1  0
 22 23  2  0
 23 24  1  0
 24 25  2  0
 25 26  1  0
 26 27  2  0
 27 28  1  0
 28 29  2  0
 28 37  1  0
 29 30  1  0
 30 31  1  0
 30 35  2  0
 31 32  1  0
 31 33  1  0
 33 34  2  0
 34 35  1  0
 35 36  1  0
 36 37  2  0
M  CHG  1   4   1
M  END
$$$$
