
     RDKit          3D

 37 42  0  0  0  0  0  0  0  0999 V2000
   84.2385   47.8268  266.7228 C   0  0  0  0  0  0  0  0  0  0  0  0
   82.7546   47.7228  266.6095 C   0  0  0  0  0  0  0  0  0  0  0  0
   82.0359   47.3865  267.8761 C   0  0  0  0  0  0  0  0  0  0  0  0
   82.8857   46.7558  268.8701 N   0  0  2  0  0  4  0  0  0  0  0  0
   83.4666   47.7489  269.7252 C   0  0  0  0  0  0  0  0  0  0  0  0
   83.8503   45.8904  268.2151 C   0  0  0  0  0  0  0  0  0  0  0  0
   84.8842   46.8416  267.6101 C   0  0  1  0  0  0  0  0  0  0  0  0
   85.9695   46.1786  266.9672 N   0  0  0  0  0  0  0  0  0  0  0  0
   87.0895   46.8954  266.4942 C   0  0  0  0  0  0  0  0  0  0  0  0
   87.0736   48.1183  266.5734 O   0  0  0  0  0  0  0  0  0  0  0  0
   88.1828   46.1395  265.9620 C   0  0  0  0  0  0  0  0  0  0  0  0
   87.9545   44.8077  265.5791 C   0  0  0  0  0  0  0  0  0  0  0  0
   88.9061   44.0641  264.9265 C   0  0  0  0  0  0  0  0  0  0  0  0
   90.0977   44.5907  264.6296 N   0  0  0  0  0  0  0  0  0  0  0  0
   90.3419   45.8728  264.9919 C   0  0  0  0  0  0  0  0  0  0  0  0
   89.4046   46.6595  265.6578 C   0  0  0  0  0  0  0  0  0  0  0  0
   89.7504   47.9134  266.2185 N   0  0  0  0  0  0  0  0  0  0  0  0
   91.1307   48.2172  266.4792 C   0  0  0  0  0  0  0  0  0  0  0  0
   91.5380   49.4448  267.0045 C   0  0  0  0  0  0  0  0  0  0  0  0
   92.1347   47.2855  266.2958 C   0  0  0  0  0  0  0  0  0  0  0  0
   93.4622   47.4903  266.5852 C   0  0  0  0  0  0  0  0  0  0  0  0
   94.4009   46.5349  266.3754 N   0  0  0  0  0  0  0  0  0  0  0  0
   95.7000   46.7463  266.6613 C   0  0  0  0  0  0  0  0  0  0  0  0
   96.0954   47.9611  267.1794 C   0  0  0  0  0  0  0  0  0  0  0  0
   95.1367   48.9056  267.3835 N   0  0  0  0  0  0  0  0  0  0  0  0
   93.8362   48.6982  267.0990 C   0  0  0  0  0  0  0  0  0  0  0  0
   92.8639   49.6737  267.3083 C   0  0  0  0  0  0  0  0  0  0  0  0
   93.3466   50.9147  267.9518 C   0  0  0  0  0  0  0  0  0  0  0  0
   92.6331   51.3674  269.0790 C   0  0  0  0  0  0  0  0  0  0  0  0
   93.0058   52.5111  269.7386 C   0  0  0  0  0  0  0  0  0  0  0  0
   92.5150   53.1672  270.8295 N   0  0  0  0  0  0  0  0  0  0  0  0
   91.3353   52.6401  271.5421 C   0  0  0  0  0  0  0  0  0  0  0  0
   93.2257   54.2529  271.0944 C   0  0  0  0  0  0  0  0  0  0  0  0
   94.2439   54.3640  270.1646 C   0  0  0  0  0  0  0  0  0  0  0  0
   94.0916   53.2781  269.3370 C   0  0  0  0  0  0  0  0  0  0  0  0
   94.7970   52.8215  268.2159 C   0  0  0  0  0  0  0  0  0  0  0  0
   94.4013   51.6501  267.5561 C   0  0  0  0  0  0  0  0  0  0  0  0
  1  2  1  0
  1  7  1  0
  2  3  1  0
  3  4  1  0
  4  5  1  6
  4  6  1  0
  6  7  1  0
  7  8  1  6
  8  9  1  0
  9 10  2  0
  9 11  1  0
 11 12  2  0
 11 16  1  0
 12 13  1  0
 13 14  2  0
 14 15  1  0
 15 16  2  0
 16 17  1  0
 17 18  1  0
 18 19  2  0
 18 20  1  0
 19 27  1  0
 20 21  2  0
 21 22  1  0
 21 26  1  0
 22 23  2  0
 23 24  1  0
 24 25  2  0
 25 26  1  0
 26 27  2  0
 27 28  1  0
 28 29  2  0
 28 37  1  0
 29 30  1  0
 30 31  1  0
 30 35  2  0
 31 32  1  0
 31 33  1  0
 33 34  2  0
 34 35  1  0
 35 36  1  0
 36 37  2  0
M  CHG  1   4   1
M  END
$$$$
