
     RDKit          3D

 37 42  0  0  0  0  0  0  0  0999 V2000
   84.6274   46.6352  267.4459 C   0  0  0  0  0  0  0  0  0  0  0  0
   83.2119   46.2022  267.6320 C   0  0  0  0  0  0  0  0  0  0  0  0
   82.9969   45.1308  268.6515 C   0  0  0  0  0  0  0  0  0  0  0  0
   84.1941   44.3615  268.9394 N   0  0  2  0  0  4  0  0  0  0  0  0
   84.9083   44.9502  270.0341 C   0  0  0  0  0  0  0  0  0  0  0  0
   84.9791   44.2013  267.7285 C   0  0  0  0  0  0  0  0  0  0  0  0
   85.6386   45.5633  267.5048 C   0  0  1  0  0  0  0  0  0  0  0  0
   86.5176   45.6000  266.3837 N   0  0  0  0  0  0  0  0  0  0  0  0
   87.1934   46.7847  266.0208 C   0  0  0  0  0  0  0  0  0  0  0  0
   86.8723   47.8304  266.5735 O   0  0  0  0  0  0  0  0  0  0  0  0
   88.2254   46.6823  265.0337 C   0  0  0  0  0  0  0  0  0  0  0  0
   87.9616   45.9584  263.8595 C   0  0  0  0  0  0  0  0  0  0  0  0
   88.8398   45.9363  262.8047 C   0  0  0  0  0  0  0  0  0  0  0  0
   89.9906   46.6129  262.8611 N   0  0  0  0  0  0  0  0  0  0  0  0
   90.2682   47.3161  263.9850 C   0  0  0  0  0  0  0  0  0  0  0  0
   89.4054   47.3615  265.0781 C   0  0  0  0  0  0  0  0  0  0  0  0
   89.8055   47.9164  266.3183 N   0  0  0  0  0  0  0  0  0  0  0  0
   91.1822   48.2741  266.5241 C   0  0  0  0  0  0  0  0  0  0  0  0
   91.5620   49.5187  267.0296 C   0  0  0  0  0  0  0  0  0  0  0  0
   92.2134   47.3808  266.3043 C   0  0  0  0  0  0  0  0  0  0  0  0
   93.5423   47.6376  266.5411 C   0  0  0  0  0  0  0  0  0  0  0  0
   94.5082   46.7179  266.2974 N   0  0  0  0  0  0  0  0  0  0  0  0
   95.8083   46.9802  266.5319 C   0  0  0  0  0  0  0  0  0  0  0  0
   96.1766   48.2115  267.0308 C   0  0  0  0  0  0  0  0  0  0  0  0
   95.1908   49.1194  267.2694 N   0  0  0  0  0  0  0  0  0  0  0  0
   93.8893   48.8611  267.0365 C   0  0  0  0  0  0  0  0  0  0  0  0
   92.8890   49.7995  267.2809 C   0  0  0  0  0  0  0  0  0  0  0  0
   93.3482   51.0609  267.9015 C   0  0  0  0  0  0  0  0  0  0  0  0
   92.7113   51.4527  269.0954 C   0  0  0  0  0  0  0  0  0  0  0  0
   93.0688   52.6097  269.7401 C   0  0  0  0  0  0  0  0  0  0  0  0
   92.6372   53.2193  270.8818 N   0  0  0  0  0  0  0  0  0  0  0  0
   91.5613   52.6086  271.6863 C   0  0  0  0  0  0  0  0  0  0  0  0
   93.2990   54.3451  271.1024 C   0  0  0  0  0  0  0  0  0  0  0  0
   94.2209   54.5329  270.0885 C   0  0  0  0  0  0  0  0  0  0  0  0
   94.0639   53.4498  269.2580 C   0  0  0  0  0  0  0  0  0  0  0  0
   94.6935   53.0535  268.0708 C   0  0  0  0  0  0  0  0  0  0  0  0
   94.3149   51.8674  267.4275 C   0  0  0  0  0  0  0  0  0  0  0  0
  1  2  1  0
  1  7  1  0
  2  3  1  0
  3  4  1  0
  4  5  1  1
  4  6  1  0
  6  7  1  0
  7  8  1  6
  8  9  1  0
  9 10  2  0
  9 11  1  0
 11 12  2  0
 11 16  1  0
 12 13  1  0
 13 14  2  0
 14 15  1  0
 15 16  2  0
 16 17  1  0
 17 18  1  0
 18 19  2  0
 18 20  1  0
 19 27  1  0
 20 21  2  0
 21 22  1  0
 21 26  1  0
 22 23  2  0
 23 24  1  0
 24 25  2  0
 25 26  1  0
 26 27  2  0
 27 28  1  0
 28 29  2  0
 28 37  1  0
 29 30  1  0
 30 31  1  0
 30 35  2  0
 31 32  1  0
 31 33  1  0
 33 34  2  0
 34 35  1  0
 35 36  1  0
 36 37  2  0
M  CHG  1   4   1
M  END
$$$$
