
     RDKit          3D

 37 42  0  0  0  0  0  0  0  0999 V2000
   86.9793   46.3454  266.4253 C   0  0  0  0  0  0  0  0  0  0  0  0
   85.7214   46.1084  265.6590 C   0  0  0  0  0  0  0  0  0  0  0  0
   84.9933   44.8470  265.9942 C   0  0  0  0  0  0  0  0  0  0  0  0
   85.8342   43.8484  266.6296 N   0  0  2  0  0  4  0  0  0  0  0  0
   85.7830   43.9938  268.0548 C   0  0  0  0  0  0  0  0  0  0  0  0
   87.1726   43.9035  266.0692 C   0  0  0  0  0  0  0  0  0  0  0  0
   87.8056   45.1520  266.6858 C   0  0  1  0  0  0  0  0  0  0  0  0
   89.1649   45.3542  266.3086 N   0  0  0  0  0  0  0  0  0  0  0  0
   89.9622   46.3339  266.9383 C   0  0  0  0  0  0  0  0  0  0  0  0
   89.4143   47.1415  267.6797 O   0  0  0  0  0  0  0  0  0  0  0  0
   91.3697   46.3099  266.6774 C   0  0  0  0  0  0  0  0  0  0  0  0
   91.9088   45.2009  266.0052 C   0  0  0  0  0  0  0  0  0  0  0  0
   93.2161   45.1671  265.5876 C   0  0  0  0  0  0  0  0  0  0  0  0
   94.0300   46.2033  265.8097 N   0  0  0  0  0  0  0  0  0  0  0  0
   93.5329   47.2830  266.4591 C   0  0  0  0  0  0  0  0  0  0  0  0
   92.2139   47.3552  266.9017 C   0  0  0  0  0  0  0  0  0  0  0  0
   91.7745   48.3898  267.7635 N   0  0  0  0  0  0  0  0  0  0  0  0
   92.5154   49.6196  267.8305 C   0  0  0  0  0  0  0  0  0  0  0  0
   92.3104   50.5598  268.8419 C   0  0  0  0  0  0  0  0  0  0  0  0
   93.5296   49.9150  266.9396 C   0  0  0  0  0  0  0  0  0  0  0  0
   94.3165   51.0404  266.9864 C   0  0  0  0  0  0  0  0  0  0  0  0
   95.2933   51.2746  266.0758 N   0  0  0  0  0  0  0  0  0  0  0  0
   96.0583   52.3818  266.1298 C   0  0  0  0  0  0  0  0  0  0  0  0
   95.8504   53.3064  267.1310 C   0  0  0  0  0  0  0  0  0  0  0  0
   94.8656   53.0508  268.0354 N   0  0  0  0  0  0  0  0  0  0  0  0
   94.0982   51.9447  267.9851 C   0  0  0  0  0  0  0  0  0  0  0  0
   93.0903   51.6952  268.9139 C   0  0  0  0  0  0  0  0  0  0  0  0
   92.9874   52.6824  270.0103 C   0  0  0  0  0  0  0  0  0  0  0  0
   91.7236   52.8356  270.6135 C   0  0  0  0  0  0  0  0  0  0  0  0
   91.5324   53.7301  271.6359 C   0  0  0  0  0  0  0  0  0  0  0  0
   90.4484   54.0780  272.3878 N   0  0  0  0  0  0  0  0  0  0  0  0
   89.1440   53.4299  272.1510 C   0  0  0  0  0  0  0  0  0  0  0  0
   90.7607   55.0110  273.2743 C   0  0  0  0  0  0  0  0  0  0  0  0
   92.1005   55.3286  273.1425 C   0  0  0  0  0  0  0  0  0  0  0  0
   92.5594   54.5259  272.1264 C   0  0  0  0  0  0  0  0  0  0  0  0
   93.8137   54.3675  271.5225 C   0  0  0  0  0  0  0  0  0  0  0  0
   93.9892   53.4475  270.4799 C   0  0  0  0  0  0  0  0  0  0  0  0
  1  2  1  0
  1  7  1  0
  2  3  1  0
  3  4  1  0
  4  5  1  1
  4  6  1  0
  6  7  1  0
  7  8  1  6
  8  9  1  0
  9 10  2  0
  9 11  1  0
 11 12  2  0
 11 16  1  0
 12 13  1  0
 13 14  2  0
 14 15  1  0
 15 16  2  0
 16 17  1  0
 17 18  1  0
 18 19  2  0
 18 20  1  0
 19 27  1  0
 20 21  2  0
 21 22  1  0
 21 26  1  0
 22 23  2  0
 23 24  1  0
 24 25  2  0
 25 26  1  0
 26 27  2  0
 27 28  1  0
 28 29  2  0
 28 37  1  0
 29 30  1  0
 30 31  1  0
 30 35  2  0
 31 32  1  0
 31 33  1  0
 33 34  2  0
 34 35  1  0
 35 36  1  0
 36 37  2  0
M  CHG  1   4   1
M  END
$$$$
