
     RDKit          3D

 37 42  0  0  0  0  0  0  0  0999 V2000
   85.1815   46.4849  267.1013 C   0  0  0  0  0  0  0  0  0  0  0  0
   83.8328   45.8996  266.8483 C   0  0  0  0  0  0  0  0  0  0  0  0
   83.3930   44.8552  267.8228 C   0  0  0  0  0  0  0  0  0  0  0  0
   84.4930   44.2425  268.5456 N   0  0  2  0  0  4  0  0  0  0  0  0
   84.7423   44.9563  269.7635 C   0  0  0  0  0  0  0  0  0  0  0  0
   85.6482   44.1224  267.6741 C   0  0  0  0  0  0  0  0  0  0  0  0
   86.2121   45.5406  267.5715 C   0  0  1  0  0  0  0  0  0  0  0  0
   87.4068   45.6305  266.7998 N   0  0  0  0  0  0  0  0  0  0  0  0
   88.6276   46.0316  267.3834 C   0  0  0  0  0  0  0  0  0  0  0  0
   88.6141   46.4388  268.5392 O   0  0  0  0  0  0  0  0  0  0  0  0
   89.8107   45.9225  266.5844 C   0  0  0  0  0  0  0  0  0  0  0  0
   89.8277   44.9902  265.5342 C   0  0  0  0  0  0  0  0  0  0  0  0
   90.8616   44.9266  264.6334 C   0  0  0  0  0  0  0  0  0  0  0  0
   91.9003   45.7619  264.7272 N   0  0  0  0  0  0  0  0  0  0  0  0
   91.9073   46.6679  265.7341 C   0  0  0  0  0  0  0  0  0  0  0  0
   90.8797   46.7626  266.6701 C   0  0  0  0  0  0  0  0  0  0  0  0
   91.0054   47.5600  267.8339 N   0  0  0  0  0  0  0  0  0  0  0  0
   91.8048   48.7538  267.7928 C   0  0  0  0  0  0  0  0  0  0  0  0
   92.0099   49.5532  268.9186 C   0  0  0  0  0  0  0  0  0  0  0  0
   92.4815   49.1451  266.6533 C   0  0  0  0  0  0  0  0  0  0  0  0
   93.3106   50.2372  266.5651 C   0  0  0  0  0  0  0  0  0  0  0  0
   93.9415   50.5714  265.4126 N   0  0  0  0  0  0  0  0  0  0  0  0
   94.7514   51.6449  265.3365 C   0  0  0  0  0  0  0  0  0  0  0  0
   94.9494   52.4304  266.4520 C   0  0  0  0  0  0  0  0  0  0  0  0
   94.3074   52.0761  267.5989 N   0  0  0  0  0  0  0  0  0  0  0  0
   93.4967   51.0031  267.6794 C   0  0  0  0  0  0  0  0  0  0  0  0
   92.8416   50.6521  268.8576 C   0  0  0  0  0  0  0  0  0  0  0  0
   93.1742   51.4845  270.0340 C   0  0  0  0  0  0  0  0  0  0  0  0
   92.0983   51.9140  270.8356 C   0  0  0  0  0  0  0  0  0  0  0  0
   92.3106   52.6925  271.9451 C   0  0  0  0  0  0  0  0  0  0  0  0
   91.4814   53.2377  272.8813 N   0  0  0  0  0  0  0  0  0  0  0  0
   90.0243   53.0205  272.7965 C   0  0  0  0  0  0  0  0  0  0  0  0
   92.1649   53.9268  273.7823 C   0  0  0  0  0  0  0  0  0  0  0  0
   93.5114   53.8652  273.4717 C   0  0  0  0  0  0  0  0  0  0  0  0
   93.5807   53.0974  272.3346 C   0  0  0  0  0  0  0  0  0  0  0  0
   94.6458   52.6658  271.5333 C   0  0  0  0  0  0  0  0  0  0  0  0
   94.4086   51.8700  270.4043 C   0  0  0  0  0  0  0  0  0  0  0  0
  1  2  1  0
  1  7  1  0
  2  3  1  0
  3  4  1  0
  4  5  1  1
  4  6  1  0
  6  7  1  0
  7  8  1  6
  8  9  1  0
  9 10  2  0
  9 11  1  0
 11 12  2  0
 11 16  1  0
 12 13  1  0
 13 14  2  0
 14 15  1  0
 15 16  2  0
 16 17  1  0
 17 18  1  0
 18 19  2  0
 18 20  1  0
 19 27  1  0
 20 21  2  0
 21 22  1  0
 21 26  1  0
 22 23  2  0
 23 24  1  0
 24 25  2  0
 25 26  1  0
 26 27  2  0
 27 28  1  0
 28 29  2  0
 28 37  1  0
 29 30  1  0
 30 31  1  0
 30 35  2  0
 31 32  1  0
 31 33  1  0
 33 34  2  0
 34 35  1  0
 35 36  1  0
 36 37  2  0
M  CHG  1   4   1
M  END
$$$$
