
     RDKit          3D

  8  7  0  0  0  0  0  0  0  0999 V2000
   -3.8526   -0.5447   -1.3699 C   0  0  0  0  0  0  0  0  0  0  0  0
   -4.4397   -4.4799    0.7597 C   0  0  0  0  0  0  0  0  0  0  0  0
   -4.3614   -1.5328   -0.5560 O   0  0  0  0  0  0  0  0  0  0  0  0
   -3.9578   -2.7865   -1.0027 C   0  0  0  0  0  0  0  0  0  0  0  0
   -4.9153   -3.8046   -0.4922 C   0  0  2  0  0  0  0  0  0  0  0  0
   -6.1530   -3.1635   -0.2964 O   0  0  0  0  0  0  0  0  0  0  0  0
   -5.4414   -5.2912    1.2308 O   0  0  0  0  0  0  0  0  0  0  0  0
   -5.1294   -6.6552    1.1065 C   0  0  0  0  0  0  0  0  0  0  0  0
  3  1  1  0
  5  2  1  0
  2  7  1  0
  4  3  1  0
  4  5  1  0
  5  6  1  1
  7  8  1  0
M  END
$$$$
