
     RDKit          3D

  8  7  0  0  0  0  0  0  0  0999 V2000
   -4.8923   -1.2068   -0.5400 C   0  0  0  0  0  0  0  0  0  0  0  0
   -1.9785   -4.6726    0.4965 C   0  0  0  0  0  0  0  0  0  0  0  0
   -4.7620   -2.5413   -0.2240 O   0  0  0  0  0  0  0  0  0  0  0  0
   -3.4918   -2.9984   -0.5584 C   0  0  0  0  0  0  0  0  0  0  0  0
   -2.7992   -3.4315    0.6853 C   0  0  2  0  0  0  0  0  0  0  0  0
   -2.0121   -2.3530    1.1309 O   0  0  0  0  0  0  0  0  0  0  0  0
   -0.9113   -4.6306    1.3583 O   0  0  0  0  0  0  0  0  0  0  0  0
    0.3219   -4.6726    0.6869 C   0  0  0  0  0  0  0  0  0  0  0  0
  3  1  1  0
  5  2  1  0
  2  7  1  0
  4  3  1  0
  4  5  1  0
  5  6  1  6
  7  8  1  0
M  END
$$$$
