
     RDKit          3D

  8  7  0  0  0  0  0  0  0  0999 V2000
    3.8540   -7.8681    3.9308 C   0  0  0  0  0  0  0  0  0  0  0  0
    2.8744   -4.3908    2.3969 C   0  0  0  0  0  0  0  0  0  0  0  0
    2.5751   -7.3566    3.9192 O   0  0  0  0  0  0  0  0  0  0  0  0
    2.2871   -6.7952    2.6798 C   0  0  0  0  0  0  0  0  0  0  0  0
    1.8616   -5.3840    2.8838 C   0  0  2  0  0  0  0  0  0  0  0  0
    0.6213   -5.2168    2.2395 O   0  0  0  0  0  0  0  0  0  0  0  0
    2.4461   -3.1285    2.7231 O   0  0  0  0  0  0  0  0  0  0  0  0
    3.3641   -2.1359    2.3420 C   0  0  0  0  0  0  0  0  0  0  0  0
  3  1  1  0
  5  2  1  0
  2  7  1  0
  4  3  1  0
  4  5  1  0
  5  6  1  6
  7  8  1  0
M  END
$$$$
