
     RDKit          3D

  8  7  0  0  0  0  0  0  0  0999 V2000
    6.5475   -6.7245    0.8400 C   0  0  0  0  0  0  0  0  0  0  0  0
    3.2386   -5.5374    3.7818 C   0  0  0  0  0  0  0  0  0  0  0  0
    5.6283   -7.2231    1.7368 O   0  0  0  0  0  0  0  0  0  0  0  0
    4.5256   -6.3798    1.8223 C   0  0  0  0  0  0  0  0  0  0  0  0
    3.7466   -6.7370    3.0386 C   0  0  2  0  0  0  0  0  0  0  0  0
    2.6942   -7.5809    2.6366 O   0  0  0  0  0  0  0  0  0  0  0  0
    2.0103   -5.1929    3.2759 O   0  0  0  0  0  0  0  0  0  0  0  0
    1.6759   -3.8553    3.5447 C   0  0  0  0  0  0  0  0  0  0  0  0
  3  1  1  0
  5  2  1  0
  2  7  1  0
  4  3  1  0
  4  5  1  0
  5  6  1  6
  7  8  1  0
M  END
$$$$
