
     RDKit          3D

  8  7  0  0  0  0  0  0  0  0999 V2000
    4.2651   -4.0179   -2.6967 C   0  0  0  0  0  0  0  0  0  0  0  0
    4.9354   -3.9237    1.2094 C   0  0  0  0  0  0  0  0  0  0  0  0
    5.1946   -4.8460   -2.1069 O   0  0  0  0  0  0  0  0  0  0  0  0
    4.7387   -5.2842   -0.8681 C   0  0  0  0  0  0  0  0  0  0  0  0
    5.6471   -4.7583    0.1865 C   0  0  2  0  0  0  0  0  0  0  0  0
    6.2952   -5.8596    0.7768 O   0  0  0  0  0  0  0  0  0  0  0  0
    4.3328   -4.7580    2.1172 O   0  0  0  0  0  0  0  0  0  0  0  0
    3.3239   -4.1123    2.8510 C   0  0  0  0  0  0  0  0  0  0  0  0
  3  1  1  0
  5  2  1  0
  2  7  1  0
  4  3  1  0
  4  5  1  0
  5  6  1  1
  7  8  1  0
M  END
$$$$
