
     RDKit          3D

  8  7  0  0  0  0  0  0  0  0999 V2000
   -2.7391    0.3360   -2.4743 C   0  0  0  0  0  0  0  0  0  0  0  0
   -6.3382    3.1486   -3.6600 C   0  0  0  0  0  0  0  0  0  0  0  0
   -3.2127    1.6296   -2.4830 O   0  0  0  0  0  0  0  0  0  0  0  0
   -4.5803    1.6450   -2.7356 C   0  0  0  0  0  0  0  0  0  0  0  0
   -5.0022    3.0498   -2.9856 C   0  0  2  0  0  0  0  0  0  0  0  0
   -4.9955    3.7220   -1.7490 O   0  0  0  0  0  0  0  0  0  0  0  0
   -6.9780    4.2754   -3.2079 O   0  0  0  0  0  0  0  0  0  0  0  0
   -8.3733    4.1915   -3.3465 C   0  0  0  0  0  0  0  0  0  0  0  0
  3  1  1  0
  5  2  1  0
  2  7  1  0
  4  3  1  0
  4  5  1  0
  5  6  1  1
  7  8  1  0
M  END
$$$$
