
     RDKit          3D

  8  7  0  0  0  0  0  0  0  0999 V2000
   -3.5486    2.3378    3.1340 C   0  0  0  0  0  0  0  0  0  0  0  0
   -3.7521    6.5446    1.1358 C   0  0  0  0  0  0  0  0  0  0  0  0
   -3.1374    3.6391    3.3211 O   0  0  0  0  0  0  0  0  0  0  0  0
   -3.9133    4.5084    2.5618 C   0  0  0  0  0  0  0  0  0  0  0  0
   -3.0112    5.4541    1.8507 C   0  0  2  0  0  0  0  0  0  0  0  0
   -2.1101    5.9754    2.7981 O   0  0  0  0  0  0  0  0  0  0  0  0
   -3.3765    7.7535    1.6656 O   0  0  0  0  0  0  0  0  0  0  0  0
   -2.3759    8.3835    0.9071 C   0  0  0  0  0  0  0  0  0  0  0  0
  3  1  1  0
  5  2  1  0
  2  7  1  0
  4  3  1  0
  4  5  1  0
  5  6  1  1
  7  8  1  0
M  END
$$$$
