
     RDKit          3D

  8  7  0  0  0  0  0  0  0  0999 V2000
   -4.6338    3.6065    2.6596 C   0  0  0  0  0  0  0  0  0  0  0  0
   -5.4558    3.2993   -1.8044 C   0  0  0  0  0  0  0  0  0  0  0  0
   -5.2203    2.7539    1.7503 O   0  0  0  0  0  0  0  0  0  0  0  0
   -4.6169    2.8825    0.5039 C   0  0  0  0  0  0  0  0  0  0  0  0
   -5.6023    2.5005   -0.5435 C   0  0  2  0  0  0  0  0  0  0  0  0
   -5.4539    1.1216   -0.7840 O   0  0  0  0  0  0  0  0  0  0  0  0
   -4.4192    2.7789   -2.5380 O   0  0  0  0  0  0  0  0  0  0  0  0
   -4.7654    2.5729   -3.8837 C   0  0  0  0  0  0  0  0  0  0  0  0
  3  1  1  0
  5  2  1  0
  2  7  1  0
  4  3  1  0
  4  5  1  0
  5  6  1  6
  7  8  1  0
M  END
$$$$
