
     RDKit          3D

  8  7  0  0  0  0  0  0  0  0999 V2000
    6.5837   -1.3978   -2.2910 C   0  0  0  0  0  0  0  0  0  0  0  0
    5.9946   -5.3503   -0.8061 C   0  0  0  0  0  0  0  0  0  0  0  0
    7.4218   -2.3981   -1.8499 O   0  0  0  0  0  0  0  0  0  0  0  0
    6.8843   -3.0246   -0.7307 C   0  0  0  0  0  0  0  0  0  0  0  0
    7.2122   -4.4746   -0.7935 C   0  0  2  0  0  0  0  0  0  0  0  0
    8.0100   -4.6808   -1.9347 O   0  0  0  0  0  0  0  0  0  0  0  0
    6.3776   -6.6336   -1.1058 O   0  0  0  0  0  0  0  0  0  0  0  0
    6.5586   -7.4211    0.0432 C   0  0  0  0  0  0  0  0  0  0  0  0
  3  1  1  0
  5  2  1  0
  2  7  1  0
  4  3  1  0
  4  5  1  0
  5  6  1  6
  7  8  1  0
M  END
$$$$
