
     RDKit          3D

  8  7  0  0  0  0  0  0  0  0999 V2000
   -2.1493    6.6567    4.2869 C   0  0  0  0  0  0  0  0  0  0  0  0
   -4.8085    6.0818    0.5939 C   0  0  0  0  0  0  0  0  0  0  0  0
   -2.1764    5.8534    3.1681 O   0  0  0  0  0  0  0  0  0  0  0  0
   -3.4715    5.7563    2.6705 C   0  0  0  0  0  0  0  0  0  0  0  0
   -3.4414    6.0312    1.2085 C   0  0  2  0  0  0  0  0  0  0  0  0
   -2.7428    7.2382    1.0173 O   0  0  0  0  0  0  0  0  0  0  0  0
   -4.8630    5.1756   -0.4353 O   0  0  0  0  0  0  0  0  0  0  0  0
   -5.7188    5.5898   -1.4694 C   0  0  0  0  0  0  0  0  0  0  0  0
  3  1  1  0
  5  2  1  0
  2  7  1  0
  4  3  1  0
  4  5  1  0
  5  6  1  1
  7  8  1  0
M  END
$$$$
