
     RDKit          3D

  8  7  0  0  0  0  0  0  0  0999 V2000
    6.4842   -7.4539   -1.4338 C   0  0  0  0  0  0  0  0  0  0  0  0
    4.0811   -5.0926   -2.2381 C   0  0  0  0  0  0  0  0  0  0  0  0
    6.7197   -6.3406   -2.2101 O   0  0  0  0  0  0  0  0  0  0  0  0
    6.4555   -5.1807   -1.4897 C   0  0  0  0  0  0  0  0  0  0  0  0
    5.4117   -4.4012   -2.2085 C   0  0  2  0  0  0  0  0  0  0  0  0
    5.3254   -3.1382   -1.5932 O   0  0  0  0  0  0  0  0  0  0  0  0
    3.0963   -4.1631   -2.0154 O   0  0  0  0  0  0  0  0  0  0  0  0
    2.5216   -3.6949   -3.2085 C   0  0  0  0  0  0  0  0  0  0  0  0
  3  1  1  0
  5  2  1  0
  2  7  1  0
  4  3  1  0
  4  5  1  0
  5  6  1  1
  7  8  1  0
M  END
$$$$
