
     RDKit          3D

  8  7  0  0  0  0  0  0  0  0999 V2000
   -5.8576   -6.1707    1.9124 C   0  0  0  0  0  0  0  0  0  0  0  0
   -5.3111   -2.0803   -0.4532 C   0  0  0  0  0  0  0  0  0  0  0  0
   -5.1993   -5.5117    0.8975 O   0  0  0  0  0  0  0  0  0  0  0  0
   -5.7253   -4.2359    0.7247 C   0  0  0  0  0  0  0  0  0  0  0  0
   -4.7852   -3.4430   -0.1129 C   0  0  2  0  0  0  0  0  0  0  0  0
   -3.5609   -3.3680    0.5775 O   0  0  0  0  0  0  0  0  0  0  0  0
   -4.3254   -1.3756   -1.0976 O   0  0  0  0  0  0  0  0  0  0  0  0
   -4.2837   -0.0283   -0.7022 C   0  0  0  0  0  0  0  0  0  0  0  0
  3  1  1  0
  5  2  1  0
  2  7  1  0
  4  3  1  0
  4  5  1  0
  5  6  1  1
  7  8  1  0
M  END
$$$$
