
     RDKit          3D

 30 33  0  0  0  0  0  0  0  0999 V2000
  -13.5615    8.8305    0.3020 C   0  0  0  0  0  0  0  0  0  0  0  0
  -13.0261    8.9687    1.5608 C   0  0  0  0  0  0  0  0  0  0  0  0
  -11.6587    9.0375    1.7950 C   0  0  0  0  0  0  0  0  0  0  0  0
  -10.7742    8.9653    0.7289 C   0  0  0  0  0  0  0  0  0  0  0  0
  -12.6381    8.7613   -0.7442 C   0  0  0  0  0  0  0  0  0  0  0  0
  -27.4973    8.8896   -2.4476 C   0  0  0  0  0  0  0  0  0  0  0  0
  -26.1108    9.0758   -1.9853 C   0  0  0  0  0  0  0  0  0  0  0  0
  -25.8267    9.4493   -0.6717 C   0  0  0  0  0  0  0  0  0  0  0  0
  -24.5302    9.6199   -0.2358 C   0  0  0  0  0  0  0  0  0  0  0  0
  -25.0191    8.8904   -2.8156 C   0  0  0  0  0  0  0  0  0  0  0  0
  -23.7149    9.0607   -2.3805 C   0  0  0  0  0  0  0  0  0  0  0  0
  -23.4581    9.4283   -1.0808 C   0  0  0  0  0  0  0  0  0  0  0  0
  -20.6183    8.5126   -1.1360 C   0  0  1  0  0  0  0  0  0  0  0  0
  -19.4858    6.5964   -0.4373 C   0  0  2  0  0  0  0  0  0  0  0  0
  -18.8594    6.5586    0.9300 C   0  0  0  0  0  0  0  0  0  0  0  0
  -18.5639    6.8916   -1.5585 C   0  0  1  0  0  0  0  0  0  0  0  0
  -18.1684    8.3259   -1.6142 C   0  0  1  0  0  0  0  0  0  0  0  0
  -15.6990    8.4846   -1.0775 C   0  0  0  0  0  0  0  0  0  0  0  0
  -14.9969    8.7567    0.0476 C   0  0  0  0  0  0  0  0  0  0  0  0
  -11.2793    8.8262   -0.5461 C   0  0  0  0  0  0  0  0  0  0  0  0
  -19.3244    9.2469   -1.3005 C   0  0  1  0  0  0  0  0  0  0  0  0
  -11.1219    9.1799    3.0308 F   0  0  0  0  0  0  0  0  0  0  0  0
  -17.0093    8.5418   -0.7754 N   0  0  0  0  0  0  0  0  0  0  0  0
  -15.9189    8.9774    1.0281 N   0  0  0  0  0  0  0  0  0  0  0  0
  -17.1007    8.8430    0.5114 N   0  0  0  0  0  0  0  0  0  0  0  0
  -20.5952    7.3954   -0.3657 O   0  0  0  0  0  0  0  0  0  0  0  0
  -19.5461    5.5409    1.6371 O   0  0  0  0  0  0  0  0  0  0  0  0
  -17.4276    6.0819   -1.4383 O   0  0  0  0  0  0  0  0  0  0  0  0
  -19.4665   10.1171   -2.3817 O   0  0  0  0  0  0  0  0  0  0  0  0
  -21.8266    9.6482   -0.4066 S   0  0  0  0  0  0  0  0  0  0  0  0
  1  2  2  0
  1  5  1  0
 19  1  1  0
  2  3  1  0
  3  4  2  0
  3 22  1  0
 20  4  1  0
  5 20  2  0
  7  6  1  0
  8  7  2  0
 10  7  1  0
  9  8  1  0
 12  9  2  0
 11 10  2  0
 12 11  1  0
 30 12  1  0
 21 13  1  0
 13 26  1  0
 13 30  1  1
 14 15  1  1
 16 14  1  0
 14 26  1  0
 15 27  1  0
 17 16  1  0
 16 28  1  1
 17 21  1  0
 17 23  1  1
 18 19  2  0
 18 23  1  0
 19 24  1  0
 21 29  1  6
 23 25  1  0
 24 25  2  0
M  END
$$$$
