
     RDKit          3D

 30 33  0  0  0  0  0  0  0  0999 V2000
  -13.7518    8.5105   -0.4646 C   0  0  0  0  0  0  0  0  0  0  0  0
  -12.9606    7.4146   -0.7159 C   0  0  0  0  0  0  0  0  0  0  0  0
  -11.5988    7.3896   -0.4432 C   0  0  0  0  0  0  0  0  0  0  0  0
  -10.9871    8.5068    0.1062 C   0  0  0  0  0  0  0  0  0  0  0  0
  -13.0985    9.6148    0.0883 C   0  0  0  0  0  0  0  0  0  0  0  0
  -27.8495    8.4647   -2.3289 C   0  0  0  0  0  0  0  0  0  0  0  0
  -26.4128    8.7330   -2.1424 C   0  0  0  0  0  0  0  0  0  0  0  0
  -25.9448   10.0141   -1.8499 C   0  0  0  0  0  0  0  0  0  0  0  0
  -24.6016   10.2667   -1.6709 C   0  0  0  0  0  0  0  0  0  0  0  0
  -25.4523    7.7414   -2.2418 C   0  0  0  0  0  0  0  0  0  0  0  0
  -24.1017    7.9921   -2.0621 C   0  0  0  0  0  0  0  0  0  0  0  0
  -23.6628    9.2626   -1.7733 C   0  0  0  0  0  0  0  0  0  0  0  0
  -20.8601    8.2565   -1.5759 C   0  0  1  0  0  0  0  0  0  0  0  0
  -19.7781    6.8868   -0.0282 C   0  0  2  0  0  0  0  0  0  0  0  0
  -19.0633    7.5055    1.1421 C   0  0  0  0  0  0  0  0  0  0  0  0
  -18.9206    6.4956   -1.1710 C   0  0  1  0  0  0  0  0  0  0  0  0
  -18.4602    7.6644   -1.9699 C   0  0  1  0  0  0  0  0  0  0  0  0
  -15.9860    7.6962   -1.4326 C   0  0  0  0  0  0  0  0  0  0  0  0
  -15.1831    8.5451   -0.7490 C   0  0  0  0  0  0  0  0  0  0  0  0
  -11.7530    9.6222    0.3698 C   0  0  0  0  0  0  0  0  0  0  0  0
  -19.5459    8.7019   -2.1372 C   0  0  1  0  0  0  0  0  0  0  0  0
  -10.8121    6.3125   -0.6815 F   0  0  0  0  0  0  0  0  0  0  0  0
  -17.2379    8.1893   -1.4004 N   0  0  0  0  0  0  0  0  0  0  0  0
  -15.9852    9.5562   -0.3079 N   0  0  0  0  0  0  0  0  0  0  0  0
  -17.1954    9.3181   -0.7085 N   0  0  0  0  0  0  0  0  0  0  0  0
  -20.8397    7.6924   -0.3417 O   0  0  0  0  0  0  0  0  0  0  0  0
  -19.6708    6.9530    2.2966 O   0  0  0  0  0  0  0  0  0  0  0  0
  -17.8198    5.7769   -0.6886 O   0  0  0  0  0  0  0  0  0  0  0  0
  -19.7181    8.9048   -3.5068 O   0  0  0  0  0  0  0  0  0  0  0  0
  -21.9595    9.6942   -1.4958 S   0  0  0  0  0  0  0  0  0  0  0  0
  1  2  2  0
  1  5  1  0
 19  1  1  0
  2  3  1  0
  3  4  2  0
  3 22  1  0
 20  4  1  0
  5 20  2  0
  7  6  1  0
  8  7  2  0
 10  7  1  0
  9  8  1  0
 12  9  2  0
 11 10  2  0
 12 11  1  0
 30 12  1  0
 21 13  1  0
 13 26  1  0
 13 30  1  1
 14 15  1  1
 16 14  1  0
 14 26  1  0
 15 27  1  0
 17 16  1  0
 16 28  1  1
 17 21  1  0
 17 23  1  1
 18 19  2  0
 18 23  1  0
 19 24  1  0
 21 29  1  6
 23 25  1  0
 24 25  2  0
M  END
$$$$
