
     RDKit          3D

 30 33  0  0  0  0  0  0  0  0999 V2000
  -23.3762    7.8926   -0.1610 C   0  0  0  0  0  0  0  0  0  0  0  0
  -23.8989    6.8475    0.5634 C   0  0  0  0  0  0  0  0  0  0  0  0
  -25.2424    6.7656    0.9064 C   0  0  0  0  0  0  0  0  0  0  0  0
  -26.1148    7.7698    0.5131 C   0  0  0  0  0  0  0  0  0  0  0  0
  -24.2867    8.8832   -0.5378 C   0  0  0  0  0  0  0  0  0  0  0  0
   -9.2400    8.0274   -0.7853 C   0  0  0  0  0  0  0  0  0  0  0  0
  -10.6910    8.1999   -0.5962 C   0  0  0  0  0  0  0  0  0  0  0  0
  -11.2015    8.9599    0.4561 C   0  0  0  0  0  0  0  0  0  0  0  0
  -12.5585    9.1261    0.6325 C   0  0  0  0  0  0  0  0  0  0  0  0
  -11.6242    7.6277   -1.4432 C   0  0  0  0  0  0  0  0  0  0  0  0
  -12.9886    7.7931   -1.2688 C   0  0  0  0  0  0  0  0  0  0  0  0
  -13.4696    8.5476   -0.2249 C   0  0  0  0  0  0  0  0  0  0  0  0
  -16.2652    8.0330   -1.1338 C   0  0  1  0  0  0  0  0  0  0  0  0
  -17.5662    8.7127   -2.9470 C   0  0  2  0  0  0  0  0  0  0  0  0
  -18.4535    9.9205   -2.8157 C   0  0  0  0  0  0  0  0  0  0  0  0
  -18.2376    7.4019   -2.7884 C   0  0  1  0  0  0  0  0  0  0  0  0
  -18.5747    7.0972   -1.3706 C   0  0  1  0  0  0  0  0  0  0  0  0
  -21.0246    7.0362   -0.7339 C   0  0  0  0  0  0  0  0  0  0  0  0
  -21.9657    7.9865   -0.5248 C   0  0  0  0  0  0  0  0  0  0  0  0
  -25.6217    8.8319   -0.2143 C   0  0  0  0  0  0  0  0  0  0  0  0
  -17.4798    7.5252   -0.4214 C   0  0  1  0  0  0  0  0  0  0  0  0
  -25.7680    5.7369    1.6144 F   0  0  0  0  0  0  0  0  0  0  0  0
  -19.8715    7.6538   -1.0506 N   0  0  0  0  0  0  0  0  0  0  0  0
  -21.3472    9.1857   -0.7243 N   0  0  0  0  0  0  0  0  0  0  0  0
  -20.1090    8.9568   -1.0344 N   0  0  0  0  0  0  0  0  0  0  0  0
  -16.4719    8.9104   -2.1483 O   0  0  0  0  0  0  0  0  0  0  0  0
  -18.1852   10.7177   -3.9557 O   0  0  0  0  0  0  0  0  0  0  0  0
  -19.3967    7.3865   -3.5742 O   0  0  0  0  0  0  0  0  0  0  0  0
  -17.1011    6.3989    0.3098 O   0  0  0  0  0  0  0  0  0  0  0  0
  -15.1960    8.8502    0.0791 S   0  0  0  0  0  0  0  0  0  0  0  0
  1  2  2  0
  1  5  1  0
 19  1  1  0
  2  3  1  0
  3  4  2  0
  3 22  1  0
 20  4  1  0
  5 20  2  0
  7  6  1  0
  8  7  2  0
 10  7  1  0
  9  8  1  0
 12  9  2  0
 11 10  2  0
 12 11  1  0
 30 12  1  0
 21 13  1  0
 13 26  1  0
 13 30  1  1
 14 15  1  1
 16 14  1  0
 14 26  1  0
 15 27  1  0
 17 16  1  0
 16 28  1  6
 17 21  1  0
 17 23  1  1
 18 19  2  0
 18 23  1  0
 19 24  1  0
 21 29  1  6
 23 25  1  0
 24 25  2  0
M  END
$$$$
