
     RDKit          3D

 30 33  0  0  0  0  0  0  0  0999 V2000
  -13.5094    8.8704    0.0919 C   0  0  0  0  0  0  0  0  0  0  0  0
  -12.6464    9.3497   -0.8650 C   0  0  0  0  0  0  0  0  0  0  0  0
  -11.2779    9.4642   -0.6566 C   0  0  0  0  0  0  0  0  0  0  0  0
  -10.7341    9.0855    0.5621 C   0  0  0  0  0  0  0  0  0  0  0  0
  -12.9231    8.5000    1.3048 C   0  0  0  0  0  0  0  0  0  0  0  0
  -27.3229    9.0221   -2.7329 C   0  0  0  0  0  0  0  0  0  0  0  0
  -25.9762    9.2531   -2.1817 C   0  0  0  0  0  0  0  0  0  0  0  0
  -24.8459    8.6729   -2.7575 C   0  0  0  0  0  0  0  0  0  0  0  0
  -23.5845    8.8910   -2.2460 C   0  0  0  0  0  0  0  0  0  0  0  0
  -25.7533   10.0530   -1.0743 C   0  0  0  0  0  0  0  0  0  0  0  0
  -24.4869   10.2744   -0.5582 C   0  0  0  0  0  0  0  0  0  0  0  0
  -23.3866    9.6929   -1.1425 C   0  0  0  0  0  0  0  0  0  0  0  0
  -20.5858    8.6658   -1.2260 C   0  0  1  0  0  0  0  0  0  0  0  0
  -19.5668    6.7442   -0.3826 C   0  0  2  0  0  0  0  0  0  0  0  0
  -18.9302    6.7759    0.9801 C   0  0  0  0  0  0  0  0  0  0  0  0
  -18.6397    6.8916   -1.5284 C   0  0  1  0  0  0  0  0  0  0  0  0
  -18.1570    8.2894   -1.7004 C   0  0  1  0  0  0  0  0  0  0  0  0
  -15.6790    8.5248   -1.2367 C   0  0  0  0  0  0  0  0  0  0  0  0
  -14.9485    8.7477   -0.1190 C   0  0  0  0  0  0  0  0  0  0  0  0
  -11.5729    8.6010    1.5428 C   0  0  0  0  0  0  0  0  0  0  0  0
  -19.2508    9.3027   -1.4551 C   0  0  1  0  0  0  0  0  0  0  0  0
  -10.4188    9.9294   -1.5953 F   0  0  0  0  0  0  0  0  0  0  0  0
  -16.9784    8.4985   -0.8873 N   0  0  0  0  0  0  0  0  0  0  0  0
  -15.8426    8.8535    0.9057 N   0  0  0  0  0  0  0  0  0  0  0  0
  -17.0355    8.7015    0.4204 N   0  0  0  0  0  0  0  0  0  0  0  0
  -20.6240    7.6140   -0.3693 O   0  0  0  0  0  0  0  0  0  0  0  0
  -19.7534    5.9705    1.8054 O   0  0  0  0  0  0  0  0  0  0  0  0
  -17.5544    6.0247   -1.3499 O   0  0  0  0  0  0  0  0  0  0  0  0
  -19.3498   10.0917   -2.6015 O   0  0  0  0  0  0  0  0  0  0  0  0
  -21.7144    9.9288   -0.5833 S   0  0  0  0  0  0  0  0  0  0  0  0
  1  2  2  0
  1  5  1  0
 19  1  1  0
  2  3  1  0
  3  4  2  0
  3 22  1  0
 20  4  1  0
  5 20  2  0
  7  6  1  0
  8  7  2  0
 10  7  1  0
  9  8  1  0
 12  9  2  0
 11 10  2  0
 12 11  1  0
 30 12  1  0
 21 13  1  0
 13 26  1  0
 13 30  1  1
 14 15  1  1
 16 14  1  0
 14 26  1  0
 15 27  1  0
 17 16  1  0
 16 28  1  1
 17 21  1  0
 17 23  1  1
 18 19  2  0
 18 23  1  0
 19 24  1  0
 21 29  1  6
 23 25  1  0
 24 25  2  0
M  END
$$$$
