
     RDKit          3D

 30 33  0  0  0  0  0  0  0  0999 V2000
  -13.5442    8.7341   -0.2093 C   0  0  0  0  0  0  0  0  0  0  0  0
  -13.0144    7.6470    0.4447 C   0  0  0  0  0  0  0  0  0  0  0  0
  -11.6887    7.5865    0.8548 C   0  0  0  0  0  0  0  0  0  0  0  0
  -10.8422    8.6565    0.6045 C   0  0  0  0  0  0  0  0  0  0  0  0
  -12.6599    9.7903   -0.4425 C   0  0  0  0  0  0  0  0  0  0  0  0
  -27.5821    8.3470   -2.1112 C   0  0  0  0  0  0  0  0  0  0  0  0
  -26.1525    8.6683   -1.9570 C   0  0  0  0  0  0  0  0  0  0  0  0
  -25.7305    9.9451   -1.5863 C   0  0  0  0  0  0  0  0  0  0  0  0
  -24.3937   10.2469   -1.4373 C   0  0  0  0  0  0  0  0  0  0  0  0
  -25.1537    7.7329   -2.1650 C   0  0  0  0  0  0  0  0  0  0  0  0
  -23.8095    8.0330   -2.0157 C   0  0  0  0  0  0  0  0  0  0  0  0
  -23.4162    9.2983   -1.6485 C   0  0  0  0  0  0  0  0  0  0  0  0
  -20.5732    8.3965   -1.5461 C   0  0  1  0  0  0  0  0  0  0  0  0
  -19.4193    7.0150   -0.0621 C   0  0  2  0  0  0  0  0  0  0  0  0
  -18.7117    7.6188    1.1203 C   0  0  0  0  0  0  0  0  0  0  0  0
  -18.5641    6.6967   -1.2289 C   0  0  1  0  0  0  0  0  0  0  0  0
  -18.1587    7.9094   -1.9916 C   0  0  1  0  0  0  0  0  0  0  0  0
  -15.7489    7.8855   -1.2148 C   0  0  0  0  0  0  0  0  0  0  0  0
  -14.9358    8.8052   -0.6441 C   0  0  0  0  0  0  0  0  0  0  0  0
  -11.3428    9.7617   -0.0499 C   0  0  0  0  0  0  0  0  0  0  0  0
  -19.2846    8.9104   -2.1080 C   0  0  1  0  0  0  0  0  0  0  0  0
  -11.1591    6.5225    1.5053 F   0  0  0  0  0  0  0  0  0  0  0  0
  -16.9489    8.4596   -1.4194 N   0  0  0  0  0  0  0  0  0  0  0  0
  -15.6788    9.9415   -0.5129 N   0  0  0  0  0  0  0  0  0  0  0  0
  -16.8655    9.7064   -0.9799 N   0  0  0  0  0  0  0  0  0  0  0  0
  -20.5145    7.7906   -0.3332 O   0  0  0  0  0  0  0  0  0  0  0  0
  -19.2159    6.9382    2.2560 O   0  0  0  0  0  0  0  0  0  0  0  0
  -17.4306    6.0035   -0.7865 O   0  0  0  0  0  0  0  0  0  0  0  0
  -19.4835    9.1546   -3.4672 O   0  0  0  0  0  0  0  0  0  0  0  0
  -21.7241    9.7880   -1.4009 S   0  0  0  0  0  0  0  0  0  0  0  0
  1  2  2  0
  1  5  1  0
 19  1  1  0
  2  3  1  0
  3  4  2  0
  3 22  1  0
 20  4  1  0
  5 20  2  0
  7  6  1  0
  8  7  2  0
 10  7  1  0
  9  8  1  0
 12  9  2  0
 11 10  2  0
 12 11  1  0
 30 12  1  0
 21 13  1  0
 13 26  1  0
 13 30  1  1
 14 15  1  1
 16 14  1  0
 14 26  1  0
 15 27  1  0
 17 16  1  0
 16 28  1  1
 17 21  1  0
 17 23  1  1
 18 19  2  0
 18 23  1  0
 19 24  1  0
 21 29  1  6
 23 25  1  0
 24 25  2  0
M  END
$$$$
