
     RDKit          3D

 30 33  0  0  0  0  0  0  0  0999 V2000
  -13.7259    8.9025    0.1423 C   0  0  0  0  0  0  0  0  0  0  0  0
  -13.1450    8.8797    1.3881 C   0  0  0  0  0  0  0  0  0  0  0  0
  -11.7796    9.0405    1.5862 C   0  0  0  0  0  0  0  0  0  0  0  0
  -10.9447    9.2333    0.4954 C   0  0  0  0  0  0  0  0  0  0  0  0
  -12.8517    9.0987   -0.9298 C   0  0  0  0  0  0  0  0  0  0  0  0
  -27.6379    9.2985   -2.3882 C   0  0  0  0  0  0  0  0  0  0  0  0
  -26.2428    9.4711   -1.9469 C   0  0  0  0  0  0  0  0  0  0  0  0
  -25.8529    9.1802   -0.6396 C   0  0  0  0  0  0  0  0  0  0  0  0
  -24.5474    9.3369   -0.2256 C   0  0  0  0  0  0  0  0  0  0  0  0
  -25.2459    9.9238   -2.7936 C   0  0  0  0  0  0  0  0  0  0  0  0
  -23.9330   10.0820   -2.3807 C   0  0  0  0  0  0  0  0  0  0  0  0
  -23.5708    9.7881   -1.0873 C   0  0  0  0  0  0  0  0  0  0  0  0
  -20.7911    8.7065   -1.1864 C   0  0  1  0  0  0  0  0  0  0  0  0
  -19.7840    6.7238   -0.4815 C   0  0  2  0  0  0  0  0  0  0  0  0
  -19.1491    6.6544    0.8806 C   0  0  0  0  0  0  0  0  0  0  0  0
  -18.8546    6.9474   -1.6130 C   0  0  1  0  0  0  0  0  0  0  0  0
  -18.3639    8.3512   -1.6842 C   0  0  1  0  0  0  0  0  0  0  0  0
  -15.8951    8.6500   -1.2078 C   0  0  0  0  0  0  0  0  0  0  0  0
  -15.1595    8.7335   -0.0744 C   0  0  0  0  0  0  0  0  0  0  0  0
  -11.4963    9.2609   -0.7676 C   0  0  0  0  0  0  0  0  0  0  0  0
  -19.4522    9.3506   -1.3682 C   0  0  1  0  0  0  0  0  0  0  0  0
  -11.1987    9.0258    2.8102 F   0  0  0  0  0  0  0  0  0  0  0  0
  -17.1852    8.4949   -0.8572 N   0  0  0  0  0  0  0  0  0  0  0  0
  -16.0410    8.6245    0.9608 N   0  0  0  0  0  0  0  0  0  0  0  0
  -17.2316    8.4840    0.4666 N   0  0  0  0  0  0  0  0  0  0  0  0
  -20.8364    7.5964   -0.4070 O   0  0  0  0  0  0  0  0  0  0  0  0
  -19.6786    5.4903    1.4903 O   0  0  0  0  0  0  0  0  0  0  0  0
  -17.7744    6.0638   -1.4959 O   0  0  0  0  0  0  0  0  0  0  0  0
  -19.5453   10.2200   -2.4553 O   0  0  0  0  0  0  0  0  0  0  0  0
  -21.9134    9.9267   -0.4560 S   0  0  0  0  0  0  0  0  0  0  0  0
  1  2  2  0
  1  5  1  0
 19  1  1  0
  2  3  1  0
  3  4  2  0
  3 22  1  0
 20  4  1  0
  5 20  2  0
  7  6  1  0
  8  7  2  0
 10  7  1  0
  9  8  1  0
 12  9  2  0
 11 10  2  0
 12 11  1  0
 30 12  1  0
 21 13  1  0
 13 26  1  0
 13 30  1  1
 14 15  1  1
 16 14  1  0
 14 26  1  0
 15 27  1  0
 17 16  1  0
 16 28  1  1
 17 21  1  0
 17 23  1  1
 18 19  2  0
 18 23  1  0
 19 24  1  0
 21 29  1  6
 23 25  1  0
 24 25  2  0
M  END
$$$$
