
     RDKit          3D

 30 33  0  0  0  0  0  0  0  0999 V2000
  -13.5512    8.7484   -0.2436 C   0  0  0  0  0  0  0  0  0  0  0  0
  -13.1821    8.2837    0.9966 C   0  0  0  0  0  0  0  0  0  0  0  0
  -11.8802    8.3622    1.4742 C   0  0  0  0  0  0  0  0  0  0  0  0
  -10.8911    8.9294    0.6840 C   0  0  0  0  0  0  0  0  0  0  0  0
  -12.5267    9.3120   -1.0083 C   0  0  0  0  0  0  0  0  0  0  0  0
  -27.4715    8.6826   -0.8233 C   0  0  0  0  0  0  0  0  0  0  0  0
  -26.0478    8.9346   -1.1066 C   0  0  0  0  0  0  0  0  0  0  0  0
  -25.2748    8.0168   -1.8178 C   0  0  0  0  0  0  0  0  0  0  0  0
  -23.9437    8.2524   -2.0876 C   0  0  0  0  0  0  0  0  0  0  0  0
  -25.3997   10.0851   -0.6920 C   0  0  0  0  0  0  0  0  0  0  0  0
  -24.0622   10.3250   -0.9619 C   0  0  0  0  0  0  0  0  0  0  0  0
  -23.3195    9.4066   -1.6656 C   0  0  0  0  0  0  0  0  0  0  0  0
  -20.5667    8.2684   -1.4834 C   0  0  1  0  0  0  0  0  0  0  0  0
  -19.4860    7.7577    0.5199 C   0  0  2  0  0  0  0  0  0  0  0  0
  -18.7078    8.8254    1.2394 C   0  0  0  0  0  0  0  0  0  0  0  0
  -18.6844    6.8227   -0.3030 C   0  0  1  0  0  0  0  0  0  0  0  0
  -18.2066    7.4390   -1.5713 C   0  0  1  0  0  0  0  0  0  0  0  0
  -15.8299    7.6698   -0.7292 C   0  0  0  0  0  0  0  0  0  0  0  0
  -14.9167    8.6689   -0.7531 C   0  0  0  0  0  0  0  0  0  0  0  0
  -11.2288    9.4046   -0.5651 C   0  0  0  0  0  0  0  0  0  0  0  0
  -19.2564    8.3220   -2.2049 C   0  0  1  0  0  0  0  0  0  0  0  0
  -11.5080    7.9128    2.6970 F   0  0  0  0  0  0  0  0  0  0  0  0
  -16.9459    8.1102   -1.3390 N   0  0  0  0  0  0  0  0  0  0  0  0
  -15.5141    9.7159   -1.3913 N   0  0  0  0  0  0  0  0  0  0  0  0
  -16.7140    9.3557   -1.7259 N   0  0  0  0  0  0  0  0  0  0  0  0
  -20.5257    8.3663   -0.1304 O   0  0  0  0  0  0  0  0  0  0  0  0
  -19.1327    8.7640    2.5896 O   0  0  0  0  0  0  0  0  0  0  0  0
  -17.5963    6.3694    0.4531 O   0  0  0  0  0  0  0  0  0  0  0  0
  -19.4677    7.8505   -3.5009 O   0  0  0  0  0  0  0  0  0  0  0  0
  -21.6060    9.6213   -2.0928 S   0  0  0  0  0  0  0  0  0  0  0  0
  1  2  2  0
  1  5  1  0
 19  1  1  0
  2  3  1  0
  3  4  2  0
  3 22  1  0
 20  4  1  0
  5 20  2  0
  7  6  1  0
  8  7  2  0
 10  7  1  0
  9  8  1  0
 12  9  2  0
 11 10  2  0
 12 11  1  0
 30 12  1  0
 21 13  1  0
 13 26  1  0
 13 30  1  6
 14 15  1  6
 16 14  1  0
 14 26  1  0
 15 27  1  0
 17 16  1  0
 16 28  1  1
 17 21  1  0
 17 23  1  1
 18 19  2  0
 18 23  1  0
 19 24  1  0
 21 29  1  6
 23 25  1  0
 24 25  2  0
M  END
$$$$
