
     RDKit          3D

 30 33  0  0  0  0  0  0  0  0999 V2000
  -13.5299    8.9496   -0.0000 C   0  0  0  0  0  0  0  0  0  0  0  0
  -12.6557    9.0543   -1.0559 C   0  0  0  0  0  0  0  0  0  0  0  0
  -11.2865    9.2164   -0.8876 C   0  0  0  0  0  0  0  0  0  0  0  0
  -10.7537    9.2787    0.3917 C   0  0  0  0  0  0  0  0  0  0  0  0
  -12.9545    9.0172    1.2714 C   0  0  0  0  0  0  0  0  0  0  0  0
  -27.4774    9.1624   -1.9391 C   0  0  0  0  0  0  0  0  0  0  0  0
  -26.0940    9.3833   -1.4830 C   0  0  0  0  0  0  0  0  0  0  0  0
  -25.0551    8.5405   -1.8783 C   0  0  0  0  0  0  0  0  0  0  0  0
  -23.7593    8.7477   -1.4562 C   0  0  0  0  0  0  0  0  0  0  0  0
  -25.7449   10.4298   -0.6472 C   0  0  0  0  0  0  0  0  0  0  0  0
  -24.4436   10.6409   -0.2216 C   0  0  0  0  0  0  0  0  0  0  0  0
  -23.4350    9.7980   -0.6246 C   0  0  0  0  0  0  0  0  0  0  0  0
  -20.6426    8.8279   -1.0346 C   0  0  1  0  0  0  0  0  0  0  0  0
  -19.6141    6.7958   -0.5296 C   0  0  2  0  0  0  0  0  0  0  0  0
  -18.9211    6.6206    0.7941 C   0  0  0  0  0  0  0  0  0  0  0  0
  -18.7336    7.1057   -1.6798 C   0  0  1  0  0  0  0  0  0  0  0  0
  -18.2407    8.5105   -1.6634 C   0  0  1  0  0  0  0  0  0  0  0  0
  -15.7561    8.7998   -1.2702 C   0  0  0  0  0  0  0  0  0  0  0  0
  -14.9699    8.7800   -0.1683 C   0  0  0  0  0  0  0  0  0  0  0  0
  -11.6040    9.1771    1.4719 C   0  0  0  0  0  0  0  0  0  0  0  0
  -19.3102    9.4831   -1.2240 C   0  0  1  0  0  0  0  0  0  0  0  0
  -10.4163    9.3143   -1.9215 F   0  0  0  0  0  0  0  0  0  0  0  0
  -17.0267    8.5888   -0.8797 N   0  0  0  0  0  0  0  0  0  0  0  0
  -15.8012    8.5520    0.8888 N   0  0  0  0  0  0  0  0  0  0  0  0
  -17.0117    8.4430    0.4368 N   0  0  0  0  0  0  0  0  0  0  0  0
  -20.6586    7.6607   -0.3422 O   0  0  0  0  0  0  0  0  0  0  0  0
  -19.5302    5.4931    1.3983 O   0  0  0  0  0  0  0  0  0  0  0  0
  -17.6530    6.2150   -1.6784 O   0  0  0  0  0  0  0  0  0  0  0  0
  -19.4468   10.4342   -2.2356 O   0  0  0  0  0  0  0  0  0  0  0  0
  -21.7273    9.9886   -0.1639 S   0  0  0  0  0  0  0  0  0  0  0  0
  1  2  2  0
  1  5  1  0
 19  1  1  0
  2  3  1  0
  3  4  2  0
  3 22  1  0
 20  4  1  0
  5 20  2  0
  7  6  1  0
  8  7  2  0
 10  7  1  0
  9  8  1  0
 12  9  2  0
 11 10  2  0
 12 11  1  0
 30 12  1  0
 21 13  1  0
 13 26  1  0
 13 30  1  1
 14 15  1  1
 16 14  1  0
 14 26  1  0
 15 27  1  0
 17 16  1  0
 16 28  1  1
 17 21  1  0
 17 23  1  1
 18 19  2  0
 18 23  1  0
 19 24  1  0
 21 29  1  6
 23 25  1  0
 24 25  2  0
M  END
$$$$
