
     RDKit          3D

 30 33  0  0  0  0  0  0  0  0999 V2000
  -13.6310    8.4822   -0.2957 C   0  0  0  0  0  0  0  0  0  0  0  0
  -13.0601    8.6661    0.9414 C   0  0  0  0  0  0  0  0  0  0  0  0
  -11.6858    8.6939    1.1408 C   0  0  0  0  0  0  0  0  0  0  0  0
  -10.8310    8.5307    0.0605 C   0  0  0  0  0  0  0  0  0  0  0  0
  -12.7368    8.3216   -1.3572 C   0  0  0  0  0  0  0  0  0  0  0  0
  -27.6744    8.5284   -2.1159 C   0  0  0  0  0  0  0  0  0  0  0  0
  -26.2365    8.8244   -1.9907 C   0  0  0  0  0  0  0  0  0  0  0  0
  -25.3742    8.7143   -3.0816 C   0  0  0  0  0  0  0  0  0  0  0  0
  -24.0294    8.9947   -2.9678 C   0  0  0  0  0  0  0  0  0  0  0  0
  -25.6617    9.2280   -0.7980 C   0  0  0  0  0  0  0  0  0  0  0  0
  -24.3107    9.5109   -0.6806 C   0  0  0  0  0  0  0  0  0  0  0  0
  -23.4792    9.3966   -1.7695 C   0  0  0  0  0  0  0  0  0  0  0  0
  -20.7235    8.2690   -1.5667 C   0  0  1  0  0  0  0  0  0  0  0  0
  -19.8281    7.0513    0.2103 C   0  0  2  0  0  0  0  0  0  0  0  0
  -19.1553    7.7749    1.3448 C   0  0  0  0  0  0  0  0  0  0  0  0
  -18.9231    6.4761   -0.8116 C   0  0  1  0  0  0  0  0  0  0  0  0
  -18.3426    7.5100   -1.7119 C   0  0  1  0  0  0  0  0  0  0  0  0
  -15.8520    7.6483   -1.2772 C   0  0  0  0  0  0  0  0  0  0  0  0
  -15.0740    8.4509   -0.5136 C   0  0  0  0  0  0  0  0  0  0  0  0
  -11.3721    8.3439   -1.1934 C   0  0  0  0  0  0  0  0  0  0  0  0
  -19.3513    8.5724   -2.0821 C   0  0  1  0  0  0  0  0  0  0  0  0
  -11.1138    8.8807    2.3547 F   0  0  0  0  0  0  0  0  0  0  0  0
  -17.1308    8.0391   -1.1242 N   0  0  0  0  0  0  0  0  0  0  0  0
  -15.9185    9.3297    0.0988 N   0  0  0  0  0  0  0  0  0  0  0  0
  -17.1287    9.0613   -0.2817 N   0  0  0  0  0  0  0  0  0  0  0  0
  -20.8171    7.8643   -0.2747 O   0  0  0  0  0  0  0  0  0  0  0  0
  -19.8325    7.3600    2.5180 O   0  0  0  0  0  0  0  0  0  0  0  0
  -17.9008    5.7683   -0.1672 O   0  0  0  0  0  0  0  0  0  0  0  0
  -19.4217    8.6100   -3.4750 O   0  0  0  0  0  0  0  0  0  0  0  0
  -21.7379    9.7597   -1.7418 S   0  0  0  0  0  0  0  0  0  0  0  0
  1  2  2  0
  1  5  1  0
 19  1  1  0
  2  3  1  0
  3  4  2  0
  3 22  1  0
 20  4  1  0
  5 20  2  0
  7  6  1  0
  8  7  2  0
 10  7  1  0
  9  8  1  0
 12  9  2  0
 11 10  2  0
 12 11  1  0
 30 12  1  0
 21 13  1  0
 13 26  1  0
 13 30  1  1
 14 15  1  1
 16 14  1  0
 14 26  1  0
 15 27  1  0
 17 16  1  0
 16 28  1  1
 17 21  1  0
 17 23  1  1
 18 19  2  0
 18 23  1  0
 19 24  1  0
 21 29  1  6
 23 25  1  0
 24 25  2  0
M  END
$$$$
