
     RDKit          3D

 30 33  0  0  0  0  0  0  0  0999 V2000
  -13.7564    8.3330    0.2715 C   0  0  0  0  0  0  0  0  0  0  0  0
  -13.2246    8.1769    1.5297 C   0  0  0  0  0  0  0  0  0  0  0  0
  -11.8587    8.0847    1.7646 C   0  0  0  0  0  0  0  0  0  0  0  0
  -10.9721    8.1497    0.6998 C   0  0  0  0  0  0  0  0  0  0  0  0
  -12.8310    8.3938   -0.7735 C   0  0  0  0  0  0  0  0  0  0  0  0
  -27.7458    8.4610   -1.2965 C   0  0  0  0  0  0  0  0  0  0  0  0
  -26.2985    8.2764   -1.5017 C   0  0  0  0  0  0  0  0  0  0  0  0
  -25.3620    9.0132   -0.7766 C   0  0  0  0  0  0  0  0  0  0  0  0
  -24.0074    8.8391   -0.9639 C   0  0  0  0  0  0  0  0  0  0  0  0
  -25.7866    7.3692   -2.4131 C   0  0  0  0  0  0  0  0  0  0  0  0
  -24.4259    7.1917   -2.6033 C   0  0  0  0  0  0  0  0  0  0  0  0
  -23.5205    7.9283   -1.8767 C   0  0  0  0  0  0  0  0  0  0  0  0
  -20.8673    8.7948   -0.8202 C   0  0  1  0  0  0  0  0  0  0  0  0
  -19.5410   10.7114   -0.9174 C   0  0  2  0  0  0  0  0  0  0  0  0
  -18.4738   10.8258   -1.9717 C   0  0  0  0  0  0  0  0  0  0  0  0
  -19.0748   10.2980    0.4264 C   0  0  1  0  0  0  0  0  0  0  0  0
  -18.7397    8.8491    0.4973 C   0  0  1  0  0  0  0  0  0  0  0  0
  -16.2386    8.6565    0.8421 C   0  0  0  0  0  0  0  0  0  0  0  0
  -15.1903    8.4298    0.0161 C   0  0  0  0  0  0  0  0  0  0  0  0
  -11.4737    8.3056   -0.5747 C   0  0  0  0  0  0  0  0  0  0  0  0
  -19.7217    8.0000   -0.2759 C   0  0  1  0  0  0  0  0  0  0  0  0
  -11.3249    7.9370    3.0011 F   0  0  0  0  0  0  0  0  0  0  0  0
  -17.3622    8.6505    0.1011 N   0  0  0  0  0  0  0  0  0  0  0  0
  -15.7146    8.2887   -1.2351 N   0  0  0  0  0  0  0  0  0  0  0  0
  -17.0016    8.4246   -1.1533 N   0  0  0  0  0  0  0  0  0  0  0  0
  -20.5631    9.9642   -1.4381 O   0  0  0  0  0  0  0  0  0  0  0  0
  -18.6436   12.1080   -2.5500 O   0  0  0  0  0  0  0  0  0  0  0  0
  -17.9600   11.0690    0.7784 O   0  0  0  0  0  0  0  0  0  0  0  0
  -20.2440    7.0583    0.6112 O   0  0  0  0  0  0  0  0  0  0  0  0
  -21.7547    7.7647   -2.0174 S   0  0  0  0  0  0  0  0  0  0  0  0
  1  2  2  0
  1  5  1  0
 19  1  1  0
  2  3  1  0
  3  4  2  0
  3 22  1  0
 20  4  1  0
  5 20  2  0
  7  6  1  0
  8  7  2  0
 10  7  1  0
  9  8  1  0
 12  9  2  0
 11 10  2  0
 12 11  1  0
 30 12  1  0
 21 13  1  0
 13 26  1  0
 13 30  1  6
 14 15  1  6
 16 14  1  0
 14 26  1  0
 15 27  1  0
 17 16  1  0
 16 28  1  6
 17 21  1  0
 17 23  1  6
 18 19  2  0
 18 23  1  0
 19 24  1  0
 21 29  1  1
 23 25  1  0
 24 25  2  0
M  END
$$$$
