
     RDKit          3D

 30 33  0  0  0  0  0  0  0  0999 V2000
  -13.6954    8.5737   -0.1571 C   0  0  0  0  0  0  0  0  0  0  0  0
  -13.1873    8.5344    1.1197 C   0  0  0  0  0  0  0  0  0  0  0  0
  -11.8253    8.5685    1.3904 C   0  0  0  0  0  0  0  0  0  0  0  0
  -10.9181    8.6448    0.3438 C   0  0  0  0  0  0  0  0  0  0  0  0
  -12.7498    8.6502   -1.1829 C   0  0  0  0  0  0  0  0  0  0  0  0
  -27.6383    8.7640   -2.9759 C   0  0  0  0  0  0  0  0  0  0  0  0
  -26.2284    8.9718   -2.6018 C   0  0  0  0  0  0  0  0  0  0  0  0
  -25.8157   10.1260   -1.9361 C   0  0  0  0  0  0  0  0  0  0  0  0
  -24.4980   10.3207   -1.5813 C   0  0  0  0  0  0  0  0  0  0  0  0
  -25.2404    8.0439   -2.8820 C   0  0  0  0  0  0  0  0  0  0  0  0
  -23.9154    8.2364   -2.5264 C   0  0  0  0  0  0  0  0  0  0  0  0
  -23.5312    9.3815   -1.8697 C   0  0  0  0  0  0  0  0  0  0  0  0
  -20.7156    8.3955   -1.7859 C   0  0  1  0  0  0  0  0  0  0  0  0
  -19.7301    6.5925   -0.6813 C   0  0  2  0  0  0  0  0  0  0  0  0
  -19.1451    6.7893    0.6907 C   0  0  0  0  0  0  0  0  0  0  0  0
  -18.7605    6.6056   -1.8011 C   0  0  1  0  0  0  0  0  0  0  0  0
  -18.2710    7.9748   -2.1208 C   0  0  1  0  0  0  0  0  0  0  0  0
  -15.8123    8.0879   -1.5262 C   0  0  0  0  0  0  0  0  0  0  0  0
  -15.1249    8.5375   -0.4501 C   0  0  0  0  0  0  0  0  0  0  0  0
  -11.3957    8.6854   -0.9486 C   0  0  0  0  0  0  0  0  0  0  0  0
  -19.3726    9.0058   -2.0395 C   0  0  1  0  0  0  0  0  0  0  0  0
  -11.3153    8.5366    2.6453 F   0  0  0  0  0  0  0  0  0  0  0  0
  -17.1236    8.2841   -1.2951 N   0  0  0  0  0  0  0  0  0  0  0  0
  -16.0568    9.0064    0.4287 N   0  0  0  0  0  0  0  0  0  0  0  0
  -17.2301    8.8429   -0.0988 N   0  0  0  0  0  0  0  0  0  0  0  0
  -20.7866    7.4534   -0.8116 O   0  0  0  0  0  0  0  0  0  0  0  0
  -19.8928    5.9464    1.5496 O   0  0  0  0  0  0  0  0  0  0  0  0
  -17.6832    5.7706   -1.4797 O   0  0  0  0  0  0  0  0  0  0  0  0
  -19.4281    9.6517   -3.2749 O   0  0  0  0  0  0  0  0  0  0  0  0
  -21.8669    9.7217   -1.3414 S   0  0  0  0  0  0  0  0  0  0  0  0
  1  2  2  0
  1  5  1  0
 19  1  1  0
  2  3  1  0
  3  4  2  0
  3 22  1  0
 20  4  1  0
  5 20  2  0
  7  6  1  0
  8  7  2  0
 10  7  1  0
  9  8  1  0
 12  9  2  0
 11 10  2  0
 12 11  1  0
 30 12  1  0
 21 13  1  0
 13 26  1  0
 13 30  1  1
 14 15  1  1
 16 14  1  0
 14 26  1  0
 15 27  1  0
 17 16  1  0
 16 28  1  1
 17 21  1  0
 17 23  1  1
 18 19  2  0
 18 23  1  0
 19 24  1  0
 21 29  1  6
 23 25  1  0
 24 25  2  0
M  END
$$$$
