
     RDKit          3D

 30 33  0  0  0  0  0  0  0  0999 V2000
  -13.6239    8.5706    0.0921 C   0  0  0  0  0  0  0  0  0  0  0  0
  -13.0298    8.2605    1.2925 C   0  0  0  0  0  0  0  0  0  0  0  0
  -11.6595    8.3512    1.5011 C   0  0  0  0  0  0  0  0  0  0  0  0
  -10.8332    8.7699    0.4686 C   0  0  0  0  0  0  0  0  0  0  0  0
  -12.7580    8.9879   -0.9219 C   0  0  0  0  0  0  0  0  0  0  0  0
  -27.5310    9.5867   -2.4507 C   0  0  0  0  0  0  0  0  0  0  0  0
  -26.1350    9.6384   -1.9822 C   0  0  0  0  0  0  0  0  0  0  0  0
  -25.2524   10.6190   -2.4351 C   0  0  0  0  0  0  0  0  0  0  0  0
  -23.9471   10.6719   -1.9950 C   0  0  0  0  0  0  0  0  0  0  0  0
  -25.6219    8.7300   -1.0727 C   0  0  0  0  0  0  0  0  0  0  0  0
  -24.3108    8.7807   -0.6283 C   0  0  0  0  0  0  0  0  0  0  0  0
  -23.4584    9.7569   -1.0874 C   0  0  0  0  0  0  0  0  0  0  0  0
  -20.6846    8.6742   -1.2884 C   0  0  1  0  0  0  0  0  0  0  0  0
  -19.7556    6.6562   -0.5766 C   0  0  2  0  0  0  0  0  0  0  0  0
  -19.1334    6.5639    0.7900 C   0  0  0  0  0  0  0  0  0  0  0  0
  -18.8105    6.8456   -1.7013 C   0  0  1  0  0  0  0  0  0  0  0  0
  -18.2684    8.2306   -1.7688 C   0  0  1  0  0  0  0  0  0  0  0  0
  -15.7911    8.4023   -1.2740 C   0  0  0  0  0  0  0  0  0  0  0  0
  -15.0627    8.4772   -0.1355 C   0  0  0  0  0  0  0  0  0  0  0  0
  -11.3980    9.0880   -0.7479 C   0  0  0  0  0  0  0  0  0  0  0  0
  -19.3218    9.2690   -1.4605 C   0  0  1  0  0  0  0  0  0  0  0  0
  -11.0655    8.0538    2.6820 F   0  0  0  0  0  0  0  0  0  0  0  0
  -17.0912    8.3313   -0.9334 N   0  0  0  0  0  0  0  0  0  0  0  0
  -15.9586    8.4492    0.8926 N   0  0  0  0  0  0  0  0  0  0  0  0
  -17.1506    8.3622    0.3896 N   0  0  0  0  0  0  0  0  0  0  0  0
  -20.7759    7.5666   -0.5095 O   0  0  0  0  0  0  0  0  0  0  0  0
  -19.9122    5.6181    1.5016 O   0  0  0  0  0  0  0  0  0  0  0  0
  -17.7642    5.9232   -1.5766 O   0  0  0  0  0  0  0  0  0  0  0  0
  -19.3754   10.1411   -2.5482 O   0  0  0  0  0  0  0  0  0  0  0  0
  -21.7669    9.9347   -0.5660 S   0  0  0  0  0  0  0  0  0  0  0  0
  1  2  2  0
  1  5  1  0
 19  1  1  0
  2  3  1  0
  3  4  2  0
  3 22  1  0
 20  4  1  0
  5 20  2  0
  7  6  1  0
  8  7  2  0
 10  7  1  0
  9  8  1  0
 12  9  2  0
 11 10  2  0
 12 11  1  0
 30 12  1  0
 21 13  1  0
 13 26  1  0
 13 30  1  1
 14 15  1  1
 16 14  1  0
 14 26  1  0
 15 27  1  0
 17 16  1  0
 16 28  1  1
 17 21  1  0
 17 23  1  1
 18 19  2  0
 18 23  1  0
 19 24  1  0
 21 29  1  6
 23 25  1  0
 24 25  2  0
M  END
$$$$
