
     RDKit          3D

 30 33  0  0  0  0  0  0  0  0999 V2000
  -13.5737    8.9030    0.1263 C   0  0  0  0  0  0  0  0  0  0  0  0
  -13.0160    8.6669    1.3605 C   0  0  0  0  0  0  0  0  0  0  0  0
  -11.6580    8.8111    1.6141 C   0  0  0  0  0  0  0  0  0  0  0  0
  -10.8066    9.2089    0.5937 C   0  0  0  0  0  0  0  0  0  0  0  0
  -12.6835    9.3014   -0.8741 C   0  0  0  0  0  0  0  0  0  0  0  0
  -27.4809    8.4844   -1.7452 C   0  0  0  0  0  0  0  0  0  0  0  0
  -26.0900    8.8849   -1.4702 C   0  0  0  0  0  0  0  0  0  0  0  0
  -25.0246    8.3608   -2.2023 C   0  0  0  0  0  0  0  0  0  0  0  0
  -23.7228    8.7372   -1.9497 C   0  0  0  0  0  0  0  0  0  0  0  0
  -25.7604    9.7972   -0.4829 C   0  0  0  0  0  0  0  0  0  0  0  0
  -24.4532   10.1778   -0.2268 C   0  0  0  0  0  0  0  0  0  0  0  0
  -23.4185    9.6489   -0.9617 C   0  0  0  0  0  0  0  0  0  0  0  0
  -20.5837    8.8641   -1.4664 C   0  0  1  0  0  0  0  0  0  0  0  0
  -19.6431    6.8399   -0.7883 C   0  0  2  0  0  0  0  0  0  0  0  0
  -19.0608    6.7151    0.5933 C   0  0  0  0  0  0  0  0  0  0  0  0
  -18.6680    7.0788   -1.8774 C   0  0  1  0  0  0  0  0  0  0  0  0
  -18.1472    8.4735   -1.8861 C   0  0  1  0  0  0  0  0  0  0  0  0
  -15.6955    8.7340   -1.3095 C   0  0  0  0  0  0  0  0  0  0  0  0
  -14.9995    8.7531   -0.1485 C   0  0  0  0  0  0  0  0  0  0  0  0
  -11.3347    9.4532   -0.6559 C   0  0  0  0  0  0  0  0  0  0  0  0
  -19.2265    9.4853   -1.5786 C   0  0  1  0  0  0  0  0  0  0  0  0
  -11.0999    8.5869    2.8282 F   0  0  0  0  0  0  0  0  0  0  0  0
  -16.9975    8.5669   -1.0124 N   0  0  0  0  0  0  0  0  0  0  0  0
  -15.9167    8.5933    0.8483 N   0  0  0  0  0  0  0  0  0  0  0  0
  -17.0899    8.4855    0.3065 N   0  0  0  0  0  0  0  0  0  0  0  0
  -20.6800    7.7317   -0.7248 O   0  0  0  0  0  0  0  0  0  0  0  0
  -19.9078    5.8146    1.2852 O   0  0  0  0  0  0  0  0  0  0  0  0
  -17.6106    6.1696   -1.7488 O   0  0  0  0  0  0  0  0  0  0  0  0
  -19.2618   10.3896   -2.6405 O   0  0  0  0  0  0  0  0  0  0  0  0
  -21.7081   10.0845   -0.7394 S   0  0  0  0  0  0  0  0  0  0  0  0
  1  2  2  0
  1  5  1  0
 19  1  1  0
  2  3  1  0
  3  4  2  0
  3 22  1  0
 20  4  1  0
  5 20  2  0
  7  6  1  0
  8  7  2  0
 10  7  1  0
  9  8  1  0
 12  9  2  0
 11 10  2  0
 12 11  1  0
 30 12  1  0
 21 13  1  0
 13 26  1  0
 13 30  1  1
 14 15  1  1
 16 14  1  0
 14 26  1  0
 15 27  1  0
 17 16  1  0
 16 28  1  1
 17 21  1  0
 17 23  1  1
 18 19  2  0
 18 23  1  0
 19 24  1  0
 21 29  1  6
 23 25  1  0
 24 25  2  0
M  END
$$$$
