
     RDKit          3D

 30 33  0  0  0  0  0  0  0  0999 V2000
  -13.8911    8.8967   -0.0477 C   0  0  0  0  0  0  0  0  0  0  0  0
  -13.8259    9.8894    0.9012 C   0  0  0  0  0  0  0  0  0  0  0  0
  -12.6298   10.3196    1.4611 C   0  0  0  0  0  0  0  0  0  0  0  0
  -11.4355    9.7373    1.0625 C   0  0  0  0  0  0  0  0  0  0  0  0
  -12.6675    8.3358   -0.4220 C   0  0  0  0  0  0  0  0  0  0  0  0
  -27.3499   10.8545   -0.9219 C   0  0  0  0  0  0  0  0  0  0  0  0
  -25.9221   10.6141   -0.6491 C   0  0  0  0  0  0  0  0  0  0  0  0
  -24.9253   11.3386   -1.3027 C   0  0  0  0  0  0  0  0  0  0  0  0
  -23.5890   11.1184   -1.0459 C   0  0  0  0  0  0  0  0  0  0  0  0
  -25.4887    9.6682    0.2637 C   0  0  0  0  0  0  0  0  0  0  0  0
  -24.1465    9.4448    0.5242 C   0  0  0  0  0  0  0  0  0  0  0  0
  -23.1808   10.1715   -0.1312 C   0  0  0  0  0  0  0  0  0  0  0  0
  -20.6543    8.8867   -1.0653 C   0  0  1  0  0  0  0  0  0  0  0  0
  -19.8585    6.6938   -1.0632 C   0  0  2  0  0  0  0  0  0  0  0  0
  -19.0170    6.2081    0.0853 C   0  0  0  0  0  0  0  0  0  0  0  0
  -19.1146    7.1017   -2.2774 C   0  0  1  0  0  0  0  0  0  0  0  0
  -18.4331    8.4159   -2.1189 C   0  0  1  0  0  0  0  0  0  0  0  0
  -16.2332    9.1132   -1.0771 C   0  0  0  0  0  0  0  0  0  0  0  0
  -15.1439    8.4384   -0.6403 C   0  0  0  0  0  0  0  0  0  0  0  0
  -11.4669    8.7386    0.1129 C   0  0  0  0  0  0  0  0  0  0  0  0
  -19.2837    9.4097   -1.3626 C   0  0  1  0  0  0  0  0  0  0  0  0
  -12.5547   11.3012    2.3920 F   0  0  0  0  0  0  0  0  0  0  0  0
  -17.1218    8.2151   -1.5409 N   0  0  0  0  0  0  0  0  0  0  0  0
  -15.4033    7.1165   -0.8545 N   0  0  0  0  0  0  0  0  0  0  0  0
  -16.5807    7.0156   -1.3885 N   0  0  0  0  0  0  0  0  0  0  0  0
  -20.7352    7.6244   -0.5735 O   0  0  0  0  0  0  0  0  0  0  0  0
  -19.6917    5.0740    0.6009 O   0  0  0  0  0  0  0  0  0  0  0  0
  -18.1795    6.1081   -2.5932 O   0  0  0  0  0  0  0  0  0  0  0  0
  -19.4275   10.5351   -2.1747 O   0  0  0  0  0  0  0  0  0  0  0  0
  -21.4326    9.9893    0.1432 S   0  0  0  0  0  0  0  0  0  0  0  0
  1  2  2  0
  1  5  1  0
 19  1  1  0
  2  3  1  0
  3  4  2  0
  3 22  1  0
 20  4  1  0
  5 20  2  0
  7  6  1  0
  8  7  2  0
 10  7  1  0
  9  8  1  0
 12  9  2  0
 11 10  2  0
 12 11  1  0
 30 12  1  0
 21 13  1  0
 13 26  1  0
 13 30  1  1
 14 15  1  1
 16 14  1  0
 14 26  1  0
 15 27  1  0
 17 16  1  0
 16 28  1  1
 17 21  1  0
 17 23  1  1
 18 19  2  0
 18 23  1  0
 19 24  1  0
 21 29  1  6
 23 25  1  0
 24 25  2  0
M  END
$$$$
