
     RDKit          3D

 30 33  0  0  0  0  0  0  0  0999 V2000
  -20.2156    6.5424    0.0172 C   0  0  0  0  0  0  0  0  0  0  0  0
  -19.1130    5.8035    0.3758 C   0  0  0  0  0  0  0  0  0  0  0  0
  -19.2052    4.5702    1.0080 C   0  0  0  0  0  0  0  0  0  0  0  0
  -20.4528    4.0398    1.3017 C   0  0  0  0  0  0  0  0  0  0  0  0
  -21.4530    5.9741    0.3303 C   0  0  0  0  0  0  0  0  0  0  0  0
  -16.1793   18.5824   -5.9469 C   0  0  0  0  0  0  0  0  0  0  0  0
  -16.7820   17.5506   -5.0850 C   0  0  0  0  0  0  0  0  0  0  0  0
  -15.9964   16.7312   -4.2743 C   0  0  0  0  0  0  0  0  0  0  0  0
  -16.5583   15.7681   -3.4639 C   0  0  0  0  0  0  0  0  0  0  0  0
  -18.1482   17.3366   -5.0257 C   0  0  0  0  0  0  0  0  0  0  0  0
  -18.7159   16.3697   -4.2120 C   0  0  0  0  0  0  0  0  0  0  0  0
  -17.9223   15.5738   -3.4202 C   0  0  0  0  0  0  0  0  0  0  0  0
  -19.2422   12.9059   -3.2048 C   0  0  1  0  0  0  0  0  0  0  0  0
  -21.3436   11.9071   -3.3736 C   0  0  2  0  0  0  0  0  0  0  0  0
  -22.1579   11.6710   -2.1308 C   0  0  0  0  0  0  0  0  0  0  0  0
  -20.5996   10.7336   -3.8869 C   0  0  1  0  0  0  0  0  0  0  0  0
  -19.3991   10.4115   -3.0672 C   0  0  1  0  0  0  0  0  0  0  0  0
  -19.5934    8.2083   -1.8347 C   0  0  0  0  0  0  0  0  0  0  0  0
  -20.1273    7.8394   -0.6466 C   0  0  0  0  0  0  0  0  0  0  0  0
  -21.5784    4.7563    0.9554 C   0  0  0  0  0  0  0  0  0  0  0  0
  -18.6677   11.6548   -2.6173 C   0  0  1  0  0  0  0  0  0  0  0  0
  -18.1249    3.8319    1.3596 F   0  0  0  0  0  0  0  0  0  0  0  0
  -19.7759    9.5337   -1.9803 N   0  0  0  0  0  0  0  0  0  0  0  0
  -20.6329    8.9758   -0.0868 N   0  0  0  0  0  0  0  0  0  0  0  0
  -20.4103    9.9618   -0.8991 N   0  0  0  0  0  0  0  0  0  0  0  0
  -20.5929   13.0341   -3.1723 O   0  0  0  0  0  0  0  0  0  0  0  0
  -23.5083   11.8555   -2.5177 O   0  0  0  0  0  0  0  0  0  0  0  0
  -21.4629    9.6319   -3.9322 O   0  0  0  0  0  0  0  0  0  0  0  0
  -17.3501   11.5448   -3.0626 O   0  0  0  0  0  0  0  0  0  0  0  0
  -18.5425   14.3225   -2.3184 S   0  0  0  0  0  0  0  0  0  0  0  0
  1  2  2  0
  1  5  1  0
 19  1  1  0
  2  3  1  0
  3  4  2  0
  3 22  1  0
 20  4  1  0
  5 20  2  0
  7  6  1  0
  8  7  2  0
 10  7  1  0
  9  8  1  0
 12  9  2  0
 11 10  2  0
 12 11  1  0
 30 12  1  0
 21 13  1  0
 13 26  1  0
 13 30  1  1
 14 15  1  1
 16 14  1  0
 14 26  1  0
 15 27  1  0
 17 16  1  0
 16 28  1  1
 17 21  1  0
 17 23  1  1
 18 19  2  0
 18 23  1  0
 19 24  1  0
 21 29  1  6
 23 25  1  0
 24 25  2  0
M  END
$$$$
