
     RDKit          3D

 30 33  0  0  0  0  0  0  0  0999 V2000
  -13.8697    8.3958    0.0281 C   0  0  0  0  0  0  0  0  0  0  0  0
  -13.0976    9.3419    0.6597 C   0  0  0  0  0  0  0  0  0  0  0  0
  -11.7240    9.2103    0.8184 C   0  0  0  0  0  0  0  0  0  0  0  0
  -11.0800    8.0840    0.3273 C   0  0  0  0  0  0  0  0  0  0  0  0
  -13.1841    7.2770   -0.4519 C   0  0  0  0  0  0  0  0  0  0  0  0
  -27.8541    8.2795   -1.7219 C   0  0  0  0  0  0  0  0  0  0  0  0
  -26.3943    8.2866   -1.9215 C   0  0  0  0  0  0  0  0  0  0  0  0
  -25.5181    8.5503   -0.8687 C   0  0  0  0  0  0  0  0  0  0  0  0
  -24.1519    8.5533   -1.0522 C   0  0  0  0  0  0  0  0  0  0  0  0
  -25.8108    8.0320   -3.1505 C   0  0  0  0  0  0  0  0  0  0  0  0
  -24.4382    8.0339   -3.3381 C   0  0  0  0  0  0  0  0  0  0  0  0
  -23.5931    8.2955   -2.2855 C   0  0  0  0  0  0  0  0  0  0  0  0
  -21.0199    8.6524   -0.8168 C   0  0  1  0  0  0  0  0  0  0  0  0
  -19.9392   10.4842    0.1419 C   0  0  2  0  0  0  0  0  0  0  0  0
  -18.9319   11.2594   -0.6628 C   0  0  0  0  0  0  0  0  0  0  0  0
  -19.3791    9.4919    1.0884 C   0  0  1  0  0  0  0  0  0  0  0  0
  -18.8689    8.2713    0.4054 C   0  0  1  0  0  0  0  0  0  0  0  0
  -16.3516    8.0905    0.6098 C   0  0  0  0  0  0  0  0  0  0  0  0
  -15.3136    8.5262   -0.1420 C   0  0  0  0  0  0  0  0  0  0  0  0
  -11.8261    7.1166   -0.3110 C   0  0  0  0  0  0  0  0  0  0  0  0
  -19.7679    7.8367   -0.7286 C   0  0  1  0  0  0  0  0  0  0  0  0
  -10.9537   10.1398    1.4337 F   0  0  0  0  0  0  0  0  0  0  0  0
  -17.4925    8.4772    0.0095 N   0  0  0  0  0  0  0  0  0  0  0  0
  -15.8617    9.1821   -1.2049 N   0  0  0  0  0  0  0  0  0  0  0  0
  -17.1523    9.1368   -1.0878 N   0  0  0  0  0  0  0  0  0  0  0  0
  -20.8814    9.9993   -0.7251 O   0  0  0  0  0  0  0  0  0  0  0  0
  -19.4364   12.5812   -0.7358 O   0  0  0  0  0  0  0  0  0  0  0  0
  -18.3539   10.0959    1.8268 O   0  0  0  0  0  0  0  0  0  0  0  0
  -20.1407    6.5155   -0.4793 O   0  0  0  0  0  0  0  0  0  0  0  0
  -21.8181    8.2971   -2.4038 S   0  0  0  0  0  0  0  0  0  0  0  0
  1  2  2  0
  1  5  1  0
 19  1  1  0
  2  3  1  0
  3  4  2  0
  3 22  1  0
 20  4  1  0
  5 20  2  0
  7  6  1  0
  8  7  2  0
 10  7  1  0
  9  8  1  0
 12  9  2  0
 11 10  2  0
 12 11  1  0
 30 12  1  0
 21 13  1  0
 13 26  1  0
 13 30  1  6
 14 15  1  6
 16 14  1  0
 14 26  1  0
 15 27  1  0
 17 16  1  0
 16 28  1  6
 17 21  1  0
 17 23  1  6
 18 19  2  0
 18 23  1  0
 19 24  1  0
 21 29  1  1
 23 25  1  0
 24 25  2  0
M  END
$$$$
