
     RDKit          3D

 71 72  0  0  0  0  0  0  0  0999 V2000
   93.0545   27.4803  170.1661 C   0  0  1  0  0  0  0  0  0  0  0  0
   95.6279   28.5819  171.7663 C   0  0  0  0  0  0  0  0  0  0  0  0
   95.4173   27.7167  170.5154 C   0  0  2  0  0  0  0  0  0  0  0  0
   95.4134   28.5115  169.1755 C   0  0  1  0  0  0  0  0  0  0  0  0
   94.6080   27.6738  168.1741 C   0  0  1  0  0  0  0  0  0  0  0  0
   93.1467   27.5779  168.6208 C   0  0  1  0  0  0  0  0  0  0  0  0
   83.9210   13.6852  175.7178 C   0  0  0  0  0  0  0  0  0  0  0  0
   84.7595   14.3060  176.8248 C   0  0  0  0  0  0  0  0  0  0  0  0
   84.9539   15.8169  176.6745 C   0  0  0  0  0  0  0  0  0  0  0  0
   85.7678   16.4957  177.7799 C   0  0  0  0  0  0  0  0  0  0  0  0
   86.0631   17.9721  177.5067 C   0  0  0  0  0  0  0  0  0  0  0  0
   86.8327   18.5994  178.6702 C   0  0  0  0  0  0  0  0  0  0  0  0
   87.3722   19.9863  178.3119 C   0  0  0  0  0  0  0  0  0  0  0  0
   88.7720   20.1857  178.8941 C   0  0  0  0  0  0  0  0  0  0  0  0
   89.3825   21.5553  178.5876 C   0  0  0  0  0  0  0  0  0  0  0  0
   90.5667   21.4916  177.6173 C   0  0  0  0  0  0  0  0  0  0  0  0
   91.0247   22.8767  177.1412 C   0  0  0  0  0  0  0  0  0  0  0  0
   92.3477   22.8190  176.3768 C   0  0  0  0  0  0  0  0  0  0  0  0
   92.3478   23.7175  175.1365 C   0  0  0  0  0  0  0  0  0  0  0  0
   91.8575   22.9186  173.9258 C   0  0  0  0  0  0  0  0  0  0  0  0
   92.7209   23.1011  172.6771 C   0  0  1  0  0  0  0  0  0  0  0  0
   92.6032   21.9506  171.8386 O   0  0  0  0  0  0  0  0  0  0  0  0
   92.3810   24.3925  171.8866 C   0  0  1  0  0  0  0  0  0  0  0  0
   93.4783   25.3189  172.0135 O   0  0  0  0  0  0  0  0  0  0  0  0
   92.0366   24.1969  170.3854 C   0  0  2  0  0  0  0  0  0  0  0  0
   91.8046   25.5065  169.6025 C   0  0  0  0  0  0  0  0  0  0  0  0
   91.9296   26.6481  170.4619 O   0  0  0  0  0  0  0  0  0  0  0  0
   92.5794   26.4273  167.9555 O   0  0  0  0  0  0  0  0  0  0  0  0
   94.6768   28.1686  166.8325 O   0  0  0  0  0  0  0  0  0  0  0  0
   94.2431   26.8948  170.6982 O   0  0  0  0  0  0  0  0  0  0  0  0
   95.0176   28.0234  172.9211 O   0  0  0  0  0  0  0  0  0  0  0  0
   94.8340   29.8104  169.4225 O   0  0  0  0  0  0  0  0  0  0  0  0
   95.5890   30.9313  168.9513 C   0  0  0  0  0  0  0  0  0  0  0  0
   94.9634   31.5963  167.7528 C   0  0  0  0  0  0  0  0  0  0  0  0
   94.1124   32.6945  167.9195 C   0  0  0  0  0  0  0  0  0  0  0  0
   93.5034   33.3048  166.8182 C   0  0  0  0  0  0  0  0  0  0  0  0
   93.7225   32.8397  165.5121 C   0  0  0  0  0  0  0  0  0  0  0  0
   93.0778   33.4980  164.2794 C   0  0  2  0  0  0  0  0  0  0  0  0
   91.9907   32.6313  163.6055 C   0  0  0  0  0  0  0  0  0  0  0  0
   94.1558   33.7870  163.2127 C   0  0  0  0  0  0  0  0  0  0  0  0
   92.4109   34.8247  164.7021 C   0  0  0  0  0  0  0  0  0  0  0  0
   94.5794   31.7319  165.3601 C   0  0  0  0  0  0  0  0  0  0  0  0
   95.1908   31.1195  166.4602 C   0  0  0  0  0  0  0  0  0  0  0  0
   90.8545   23.3202  170.2638 N   0  0  0  0  0  0  0  0  0  0  0  0
   90.9911   22.0228  169.8195 C   0  0  0  0  0  0  0  0  0  0  0  0
   92.0773   21.5297  169.5346 O   0  0  0  0  0  0  0  0  0  0  0  0
   89.6850   21.2558  169.7491 C   0  0  0  0  0  0  0  0  0  0  0  0
   89.6737   20.2492  168.5977 C   0  0  0  0  0  0  0  0  0  0  0  0
   88.5689   20.5691  167.5847 C   0  0  0  0  0  0  0  0  0  0  0  0
   89.1040   20.9160  166.1941 C   0  0  0  0  0  0  0  0  0  0  0  0
   87.9992   21.2384  165.1834 C   0  0  0  0  0  0  0  0  0  0  0  0
   88.5952   21.5385  163.8054 C   0  0  0  0  0  0  0  0  0  0  0  0
   87.5183   21.9242  162.7882 C   0  0  0  0  0  0  0  0  0  0  0  0
   87.7957   23.3119  162.2087 C   0  0  0  0  0  0  0  0  0  0  0  0
   86.7519   23.7944  161.1972 C   0  0  0  0  0  0  0  0  0  0  0  0
   87.0840   25.1320  160.5262 C   0  0  0  0  0  0  0  0  0  0  0  0
   86.0074   25.5806  159.5310 C   0  0  0  0  0  0  0  0  0  0  0  0
   85.9079   27.1063  159.4756 C   0  0  0  0  0  0  0  0  0  0  0  0
   84.7598   27.6396  158.6128 C   0  0  0  0  0  0  0  0  0  0  0  0
   83.6195   26.6569  158.3250 C   0  0  0  0  0  0  0  0  0  0  0  0
   82.4093   26.8155  159.2464 C   0  0  0  0  0  0  0  0  0  0  0  0
   81.3422   27.7634  158.6856 C   0  0  0  0  0  0  0  0  0  0  0  0
   81.5180   29.2465  159.0327 C   0  0  0  0  0  0  0  0  0  0  0  0
   81.3362   29.6113  160.5094 C   0  0  0  0  0  0  0  0  0  0  0  0
   82.0555   30.9025  160.9094 C   0  0  0  0  0  0  0  0  0  0  0  0
   81.5148   32.1029  160.1276 C   0  0  0  0  0  0  0  0  0  0  0  0
   81.1539   33.2969  161.0170 C   0  0  0  0  0  0  0  0  0  0  0  0
   81.5976   34.6436  160.4381 C   0  0  0  0  0  0  0  0  0  0  0  0
   81.1996   35.7995  161.3608 C   0  0  0  0  0  0  0  0  0  0  0  0
   81.6455   37.1702  160.8464 C   0  0  0  0  0  0  0  0  0  0  0  0
   83.1439   37.2714  160.6076 C   0  0  0  0  0  0  0  0  0  0  0  0
  1  6  1  0
  1 27  1  6
  1 30  1  0
  3  2  1  1
  2 31  1  0
  3  4  1  0
 30  3  1  0
  5  4  1  0
  4 32  1  1
  6  5  1  0
  5 29  1  6
  6 28  1  6
  8  7  1  0
  9  8  1  0
 10  9  1  0
 11 10  1  0
 12 11  1  0
 13 12  1  0
 14 13  1  0
 15 14  1  0
 16 15  1  0
 17 16  1  0
 18 17  1  0
 19 18  1  0
 20 19  1  0
 21 20  1  0
 21 22  1  6
 23 21  1  0
 23 24  1  6
 25 23  1  0
 25 26  1  1
 25 44  1  0
 26 27  1  0
 32 33  1  0
 33 34  1  0
 34 35  2  0
 34 43  1  0
 35 36  1  0
 36 37  2  0
 37 38  1  0
 37 42  1  0
 38 39  1  6
 38 40  1  0
 38 41  1  0
 42 43  2  0
 44 45  1  0
 45 46  2  0
 45 47  1  0
 47 48  1  0
 48 49  1  0
 49 50  1  0
 50 51  1  0
 51 52  1  0
 52 53  1  0
 53 54  1  0
 54 55  1  0
 55 56  1  0
 56 57  1  0
 57 58  1  0
 58 59  1  0
 59 60  1  0
 60 61  1  0
 61 62  1  0
 62 63  1  0
 63 64  1  0
 64 65  1  0
 65 66  1  0
 66 67  1  0
 67 68  1  0
 68 69  1  0
 69 70  1  0
 70 71  1  0
M  END
$$$$
