
     RDKit          3D

 71 72  0  0  0  0  0  0  0  0999 V2000
   94.1039   30.4816  170.7811 C   0  0  1  0  0  0  0  0  0  0  0  0
   94.1643   30.7835  173.9907 C   0  0  0  0  0  0  0  0  0  0  0  0
   94.8060   29.8225  172.9796 C   0  0  2  0  0  0  0  0  0  0  0  0
   96.2347   30.2355  172.5156 C   0  0  1  0  0  0  0  0  0  0  0  0
   96.4490   29.5923  171.1395 C   0  0  1  0  0  0  0  0  0  0  0  0
   95.4764   30.1908  170.1196 C   0  0  1  0  0  0  0  0  0  0  0  0
   82.9104   15.8939  176.2378 C   0  0  0  0  0  0  0  0  0  0  0  0
   82.7069   17.0250  175.2415 C   0  0  0  0  0  0  0  0  0  0  0  0
   84.0121   17.6738  174.7735 C   0  0  0  0  0  0  0  0  0  0  0  0
   83.9120   18.5318  173.5090 C   0  0  0  0  0  0  0  0  0  0  0  0
   84.8032   18.0449  172.3643 C   0  0  0  0  0  0  0  0  0  0  0  0
   84.5996   18.8997  171.1124 C   0  0  0  0  0  0  0  0  0  0  0  0
   84.6350   20.3957  171.4344 C   0  0  0  0  0  0  0  0  0  0  0  0
   84.3625   21.2229  170.1777 C   0  0  0  0  0  0  0  0  0  0  0  0
   84.4551   22.7348  170.3976 C   0  0  0  0  0  0  0  0  0  0  0  0
   85.0746   23.4861  169.2146 C   0  0  0  0  0  0  0  0  0  0  0  0
   86.2933   24.3290  169.6137 C   0  0  0  0  0  0  0  0  0  0  0  0
   87.1069   24.7828  168.4011 C   0  0  0  0  0  0  0  0  0  0  0  0
   88.5941   24.9551  168.7242 C   0  0  0  0  0  0  0  0  0  0  0  0
   88.9982   26.4164  168.5102 C   0  0  0  0  0  0  0  0  0  0  0  0
   90.5095   26.6472  168.5365 C   0  0  1  0  0  0  0  0  0  0  0  0
   91.0960   26.1293  167.3414 O   0  0  0  0  0  0  0  0  0  0  0  0
   90.8932   28.1378  168.7339 C   0  0  1  0  0  0  0  0  0  0  0  0
   89.7595   28.9601  168.3921 O   0  0  0  0  0  0  0  0  0  0  0  0
   91.4080   28.5234  170.1470 C   0  0  2  0  0  0  0  0  0  0  0  0
   91.7958   30.0085  170.3075 C   0  0  0  0  0  0  0  0  0  0  0  0
   93.1066   30.2573  169.7809 O   0  0  0  0  0  0  0  0  0  0  0  0
   95.3800   29.2480  169.0287 O   0  0  0  0  0  0  0  0  0  0  0  0
   97.7927   29.7090  170.6593 O   0  0  0  0  0  0  0  0  0  0  0  0
   93.8888   29.6022  171.8852 O   0  0  0  0  0  0  0  0  0  0  0  0
   94.4042   30.3949  175.3359 O   0  0  0  0  0  0  0  0  0  0  0  0
   96.2999   31.6773  172.4831 O   0  0  0  0  0  0  0  0  0  0  0  0
   97.4063   32.2684  173.1723 C   0  0  0  0  0  0  0  0  0  0  0  0
   97.1118   33.6612  173.6660 C   0  0  0  0  0  0  0  0  0  0  0  0
   97.2468   34.7574  172.8068 C   0  0  0  0  0  0  0  0  0  0  0  0
   97.0029   36.0584  173.2588 C   0  0  0  0  0  0  0  0  0  0  0  0
   96.6161   36.3103  174.5843 C   0  0  0  0  0  0  0  0  0  0  0  0
   96.3278   37.7285  175.1077 C   0  0  2  0  0  0  0  0  0  0  0  0
   95.7775   37.7616  176.5511 C   0  0  0  0  0  0  0  0  0  0  0  0
   95.2826   38.4200  174.2060 C   0  0  0  0  0  0  0  0  0  0  0  0
   97.6346   38.5503  175.0954 C   0  0  0  0  0  0  0  0  0  0  0  0
   96.4869   35.1973  175.4382 C   0  0  0  0  0  0  0  0  0  0  0  0
   96.7297   33.8941  174.9887 C   0  0  0  0  0  0  0  0  0  0  0  0
   92.5527   27.6615  170.5039 N   0  0  0  0  0  0  0  0  0  0  0  0
   92.4467   26.7519  171.5338 C   0  0  0  0  0  0  0  0  0  0  0  0
   91.7830   26.9661  172.5427 O   0  0  0  0  0  0  0  0  0  0  0  0
   93.1944   25.4558  171.2894 C   0  0  0  0  0  0  0  0  0  0  0  0
   92.2662   24.2412  171.3392 C   0  0  0  0  0  0  0  0  0  0  0  0
   92.5338   23.2834  170.1731 C   0  0  0  0  0  0  0  0  0  0  0  0
   91.7684   21.9635  170.2855 C   0  0  0  0  0  0  0  0  0  0  0  0
   90.9246   21.6457  169.0473 C   0  0  0  0  0  0  0  0  0  0  0  0
   91.4825   22.3592  167.8128 C   0  0  0  0  0  0  0  0  0  0  0  0
   90.9360   21.7643  166.5127 C   0  0  0  0  0  0  0  0  0  0  0  0
   91.3826   22.5957  165.3093 C   0  0  0  0  0  0  0  0  0  0  0  0
   90.2931   23.5016  164.7279 C   0  0  0  0  0  0  0  0  0  0  0  0
   89.0555   22.7599  164.2103 C   0  0  0  0  0  0  0  0  0  0  0  0
   88.4394   23.4240  162.9734 C   0  0  0  0  0  0  0  0  0  0  0  0
   87.2284   24.2793  163.3513 C   0  0  0  0  0  0  0  0  0  0  0  0
   86.4157   24.7961  162.1600 C   0  0  0  0  0  0  0  0  0  0  0  0
   85.3250   25.8234  162.4822 C   0  0  0  0  0  0  0  0  0  0  0  0
   84.4509   26.2039  161.2864 C   0  0  0  0  0  0  0  0  0  0  0  0
   84.4720   27.7054  160.9753 C   0  0  0  0  0  0  0  0  0  0  0  0
   84.1570   28.6355  162.1530 C   0  0  0  0  0  0  0  0  0  0  0  0
   82.7993   29.3430  162.0986 C   0  0  0  0  0  0  0  0  0  0  0  0
   82.8944   30.8078  161.6633 C   0  0  0  0  0  0  0  0  0  0  0  0
   83.3355   30.9239  160.2016 C   0  0  0  0  0  0  0  0  0  0  0  0
   82.2913   31.5913  159.3012 C   0  0  0  0  0  0  0  0  0  0  0  0
   82.6875   31.6133  157.8219 C   0  0  0  0  0  0  0  0  0  0  0  0
   81.4511   31.6671  156.9195 C   0  0  0  0  0  0  0  0  0  0  0  0
   81.7875   31.6915  155.4268 C   0  0  0  0  0  0  0  0  0  0  0  0
   80.5610   31.7115  154.5279 C   0  0  0  0  0  0  0  0  0  0  0  0
  1  6  1  0
  1 27  1  6
  1 30  1  0
  3  2  1  1
  2 31  1  0
  3  4  1  0
 30  3  1  0
  5  4  1  0
  4 32  1  6
  6  5  1  0
  5 29  1  6
  6 28  1  6
  8  7  1  0
  9  8  1  0
 10  9  1  0
 11 10  1  0
 12 11  1  0
 13 12  1  0
 14 13  1  0
 15 14  1  0
 16 15  1  0
 17 16  1  0
 18 17  1  0
 19 18  1  0
 20 19  1  0
 21 20  1  0
 21 22  1  6
 23 21  1  0
 23 24  1  1
 25 23  1  0
 25 26  1  6
 25 44  1  0
 26 27  1  0
 32 33  1  0
 33 34  1  0
 34 35  2  0
 34 43  1  0
 35 36  1  0
 36 37  2  0
 37 38  1  0
 37 42  1  0
 38 39  1  1
 38 40  1  0
 38 41  1  0
 42 43  2  0
 44 45  1  0
 45 46  2  0
 45 47  1  0
 47 48  1  0
 48 49  1  0
 49 50  1  0
 50 51  1  0
 51 52  1  0
 52 53  1  0
 53 54  1  0
 54 55  1  0
 55 56  1  0
 56 57  1  0
 57 58  1  0
 58 59  1  0
 59 60  1  0
 60 61  1  0
 61 62  1  0
 62 63  1  0
 63 64  1  0
 64 65  1  0
 65 66  1  0
 66 67  1  0
 67 68  1  0
 68 69  1  0
 69 70  1  0
 70 71  1  0
M  END
$$$$
