
     RDKit          3D

 71 72  0  0  0  0  0  0  0  0999 V2000
   92.3473   29.1155  167.8871 C   0  0  1  0  0  0  0  0  0  0  0  0
   91.3380   29.3095  164.8309 C   0  0  0  0  0  0  0  0  0  0  0  0
   90.9397   29.9878  166.1496 C   0  0  2  0  0  0  0  0  0  0  0  0
   91.6556   31.3453  166.4176 C   0  0  1  0  0  0  0  0  0  0  0  0
   91.6470   31.5498  167.9379 C   0  0  1  0  0  0  0  0  0  0  0  0
   92.4965   30.4742  168.6203 C   0  0  1  0  0  0  0  0  0  0  0  0
   94.1767   16.4955  165.3878 C   0  0  0  0  0  0  0  0  0  0  0  0
   93.9452   15.9020  166.7690 C   0  0  0  0  0  0  0  0  0  0  0  0
   92.4784   15.5732  167.0585 C   0  0  0  0  0  0  0  0  0  0  0  0
   92.1890   14.9885  168.4439 C   0  0  0  0  0  0  0  0  0  0  0  0
   91.5592   15.9904  169.4140 C   0  0  0  0  0  0  0  0  0  0  0  0
   91.5178   15.4234  170.8340 C   0  0  0  0  0  0  0  0  0  0  0  0
   90.8951   16.4126  171.8223 C   0  0  0  0  0  0  0  0  0  0  0  0
   89.5492   16.9178  171.3016 C   0  0  0  0  0  0  0  0  0  0  0  0
   88.9178   18.0090  172.1693 C   0  0  0  0  0  0  0  0  0  0  0  0
   89.7174   19.3160  172.1829 C   0  0  0  0  0  0  0  0  0  0  0  0
   88.9826   20.4736  171.4937 C   0  0  0  0  0  0  0  0  0  0  0  0
   89.9026   21.2808  170.5771 C   0  0  0  0  0  0  0  0  0  0  0  0
   89.1583   22.3916  169.8302 C   0  0  0  0  0  0  0  0  0  0  0  0
   90.1638   23.2569  169.0657 C   0  0  0  0  0  0  0  0  0  0  0  0
   91.2226   23.9047  169.9585 C   0  0  1  0  0  0  0  0  0  0  0  0
   92.2811   22.9765  170.2003 O   0  0  0  0  0  0  0  0  0  0  0  0
   91.7792   25.2313  169.3768 C   0  0  1  0  0  0  0  0  0  0  0  0
   92.5011   24.9413  168.1631 O   0  0  0  0  0  0  0  0  0  0  0  0
   90.7313   26.3442  169.1051 C   0  0  2  0  0  0  0  0  0  0  0  0
   91.1850   27.7655  169.5001 C   0  0  0  0  0  0  0  0  0  0  0  0
   92.4380   28.0947  168.8845 O   0  0  0  0  0  0  0  0  0  0  0  0
   92.0675   30.4128  169.9988 O   0  0  0  0  0  0  0  0  0  0  0  0
   92.0908   32.8502  168.3401 O   0  0  0  0  0  0  0  0  0  0  0  0
   91.0806   29.0414  167.2322 O   0  0  0  0  0  0  0  0  0  0  0  0
   92.1869   28.1885  165.0323 O   0  0  0  0  0  0  0  0  0  0  0  0
   92.9867   31.2711  165.8637 O   0  0  0  0  0  0  0  0  0  0  0  0
   93.3453   32.3186  164.9567 C   0  0  0  0  0  0  0  0  0  0  0  0
   92.2811   32.5894  163.9250 C   0  0  0  0  0  0  0  0  0  0  0  0
   91.9168   31.5956  163.0097 C   0  0  0  0  0  0  0  0  0  0  0  0
   90.9499   31.8417  162.0295 C   0  0  0  0  0  0  0  0  0  0  0  0
   90.3133   33.0886  161.9288 C   0  0  0  0  0  0  0  0  0  0  0  0
   89.2363   33.3856  160.8703 C   0  0  2  0  0  0  0  0  0  0  0  0
   88.0788   34.2685  161.3878 C   0  0  0  0  0  0  0  0  0  0  0  0
   88.6128   32.0653  160.3688 C   0  0  0  0  0  0  0  0  0  0  0  0
   89.8835   34.1275  159.6810 C   0  0  0  0  0  0  0  0  0  0  0  0
   90.6921   34.0799  162.8553 C   0  0  0  0  0  0  0  0  0  0  0  0
   91.6590   33.8364  163.8377 C   0  0  0  0  0  0  0  0  0  0  0  0
   89.4690   26.0078  169.7937 N   0  0  0  0  0  0  0  0  0  0  0  0
   88.3308   25.7309  169.0679 C   0  0  0  0  0  0  0  0  0  0  0  0
   88.3627   25.3615  167.8987 O   0  0  0  0  0  0  0  0  0  0  0  0
   87.0449   25.8912  169.8549 C   0  0  0  0  0  0  0  0  0  0  0  0
   87.0587   25.0730  171.1471 C   0  0  0  0  0  0  0  0  0  0  0  0
   85.6921   25.0974  171.8403 C   0  0  0  0  0  0  0  0  0  0  0  0
   85.1897   23.7081  172.2381 C   0  0  0  0  0  0  0  0  0  0  0  0
   83.8318   23.7353  172.9461 C   0  0  0  0  0  0  0  0  0  0  0  0
   83.4071   22.3235  173.3595 C   0  0  0  0  0  0  0  0  0  0  0  0
   84.1930   21.8223  174.5736 C   0  0  0  0  0  0  0  0  0  0  0  0
   83.7392   20.4160  174.9671 C   0  0  0  0  0  0  0  0  0  0  0  0
   84.8651   19.3789  175.0148 C   0  0  0  0  0  0  0  0  0  0  0  0
   85.1859   18.8492  176.4171 C   0  0  0  0  0  0  0  0  0  0  0  0
   84.8187   17.3709  176.5916 C   0  0  0  0  0  0  0  0  0  0  0  0
   86.0156   16.5601  177.0923 C   0  0  0  0  0  0  0  0  0  0  0  0
   85.7261   15.0742  177.3273 C   0  0  0  0  0  0  0  0  0  0  0  0
   85.7478   14.6052  178.7862 C   0  0  0  0  0  0  0  0  0  0  0  0
   86.1817   13.1502  178.9693 C   0  0  0  0  0  0  0  0  0  0  0  0
   85.0044   12.1892  179.1745 C   0  0  0  0  0  0  0  0  0  0  0  0
   84.8975   11.5521  180.5651 C   0  0  0  0  0  0  0  0  0  0  0  0
   83.9343   12.2371  181.5396 C   0  0  0  0  0  0  0  0  0  0  0  0
   84.6411   13.1106  182.5796 C   0  0  0  0  0  0  0  0  0  0  0  0
   84.0019   12.9530  183.9621 C   0  0  0  0  0  0  0  0  0  0  0  0
   82.4751   13.0774  183.9452 C   0  0  0  0  0  0  0  0  0  0  0  0
   81.7538   11.7265  183.9656 C   0  0  0  0  0  0  0  0  0  0  0  0
   80.2339   11.9111  183.9239 C   0  0  0  0  0  0  0  0  0  0  0  0
   79.5228   11.3897  185.1746 C   0  0  0  0  0  0  0  0  0  0  0  0
   78.0231   11.6412  185.1702 C   0  0  0  0  0  0  0  0  0  0  0  0
  1  6  1  0
  1 27  1  1
  1 30  1  0
  3  2  1  6
  2 31  1  0
  3  4  1  0
 30  3  1  0
  5  4  1  0
  4 32  1  1
  6  5  1  0
  5 29  1  6
  6 28  1  1
  8  7  1  0
  9  8  1  0
 10  9  1  0
 11 10  1  0
 12 11  1  0
 13 12  1  0
 14 13  1  0
 15 14  1  0
 16 15  1  0
 17 16  1  0
 18 17  1  0
 19 18  1  0
 20 19  1  0
 21 20  1  0
 21 22  1  6
 23 21  1  0
 23 24  1  6
 25 23  1  0
 25 26  1  1
 25 44  1  0
 26 27  1  0
 32 33  1  0
 33 34  1  0
 34 35  2  0
 34 43  1  0
 35 36  1  0
 36 37  2  0
 37 38  1  0
 37 42  1  0
 38 39  1  1
 38 40  1  0
 38 41  1  0
 42 43  2  0
 44 45  1  0
 45 46  2  0
 45 47  1  0
 47 48  1  0
 48 49  1  0
 49 50  1  0
 50 51  1  0
 51 52  1  0
 52 53  1  0
 53 54  1  0
 54 55  1  0
 55 56  1  0
 56 57  1  0
 57 58  1  0
 58 59  1  0
 59 60  1  0
 60 61  1  0
 61 62  1  0
 62 63  1  0
 63 64  1  0
 64 65  1  0
 65 66  1  0
 66 67  1  0
 67 68  1  0
 68 69  1  0
 69 70  1  0
 70 71  1  0
M  END
$$$$
