
     RDKit          3D

 71 72  0  0  0  0  0  0  0  0999 V2000
   95.1372   30.5174  171.9860 C   0  0  1  0  0  0  0  0  0  0  0  0
   98.1018   30.1682  173.2051 C   0  0  0  0  0  0  0  0  0  0  0  0
   97.5292   30.4356  171.8057 C   0  0  2  0  0  0  0  0  0  0  0  0
   97.4313   31.9436  171.4271 C   0  0  1  0  0  0  0  0  0  0  0  0
   96.3304   32.0557  170.3647 C   0  0  1  0  0  0  0  0  0  0  0  0
   94.9750   31.6752  170.9666 C   0  0  1  0  0  0  0  0  0  0  0  0
   82.8118   30.4600  158.6024 C   0  0  0  0  0  0  0  0  0  0  0  0
   83.8469   29.6249  159.3404 C   0  0  0  0  0  0  0  0  0  0  0  0
   83.2467   28.7019  160.4041 C   0  0  0  0  0  0  0  0  0  0  0  0
   83.0160   27.2511  159.9719 C   0  0  0  0  0  0  0  0  0  0  0  0
   83.2135   26.2356  161.0994 C   0  0  0  0  0  0  0  0  0  0  0  0
   83.0173   26.8927  162.4666 C   0  0  0  0  0  0  0  0  0  0  0  0
   83.2135   25.8939  163.6099 C   0  0  0  0  0  0  0  0  0  0  0  0
   84.7007   25.7093  163.9134 C   0  0  0  0  0  0  0  0  0  0  0  0
   85.1626   26.4012  165.1982 C   0  0  0  0  0  0  0  0  0  0  0  0
   86.6729   26.3000  165.4360 C   0  0  0  0  0  0  0  0  0  0  0  0
   87.0661   26.5517  166.8978 C   0  0  0  0  0  0  0  0  0  0  0  0
   87.7672   27.8974  167.0864 C   0  0  0  0  0  0  0  0  0  0  0  0
   88.4942   27.9964  168.4307 C   0  0  0  0  0  0  0  0  0  0  0  0
   89.9976   28.1578  168.1888 C   0  0  0  0  0  0  0  0  0  0  0  0
   90.8483   27.0783  168.8587 C   0  0  1  0  0  0  0  0  0  0  0  0
   90.8692   25.9067  168.0419 O   0  0  0  0  0  0  0  0  0  0  0  0
   92.2918   27.5516  169.1754 C   0  0  1  0  0  0  0  0  0  0  0  0
   92.8261   28.2244  168.0177 O   0  0  0  0  0  0  0  0  0  0  0  0
   92.4480   28.4614  170.4237 C   0  0  2  0  0  0  0  0  0  0  0  0
   93.9004   28.8764  170.7399 C   0  0  0  0  0  0  0  0  0  0  0  0
   93.9532   29.7201  171.8987 O   0  0  0  0  0  0  0  0  0  0  0  0
   94.1087   31.3281  169.8633 O   0  0  0  0  0  0  0  0  0  0  0  0
   96.2502   33.3520  169.7623 O   0  0  0  0  0  0  0  0  0  0  0  0
   96.2796   29.7253  171.6598 O   0  0  0  0  0  0  0  0  0  0  0  0
   99.3978   30.7242  173.3763 O   0  0  0  0  0  0  0  0  0  0  0  0
   97.1394   32.6923  172.6264 O   0  0  0  0  0  0  0  0  0  0  0  0
   97.9111   33.8815  172.8240 C   0  0  0  0  0  0  0  0  0  0  0  0
   97.1115   35.0036  173.4335 C   0  0  0  0  0  0  0  0  0  0  0  0
   96.8365   35.0096  174.8056 C   0  0  0  0  0  0  0  0  0  0  0  0
   96.0727   36.0306  175.3804 C   0  0  0  0  0  0  0  0  0  0  0  0
   95.5565   37.0809  174.6055 C   0  0  0  0  0  0  0  0  0  0  0  0
   94.7244   38.2253  175.2108 C   0  0  2  0  0  0  0  0  0  0  0  0
   93.2619   38.2645  174.7139 C   0  0  0  0  0  0  0  0  0  0  0  0
   95.3626   39.5854  174.8552 C   0  0  0  0  0  0  0  0  0  0  0  0
   94.6838   38.0674  176.7460 C   0  0  0  0  0  0  0  0  0  0  0  0
   95.8393   37.0601  173.2256 C   0  0  0  0  0  0  0  0  0  0  0  0
   96.6039   36.0401  172.6475 C   0  0  0  0  0  0  0  0  0  0  0  0
   91.8476   27.7930  171.5957 N   0  0  0  0  0  0  0  0  0  0  0  0
   92.2197   26.5099  171.9335 C   0  0  0  0  0  0  0  0  0  0  0  0
   92.8645   25.7862  171.1819 O   0  0  0  0  0  0  0  0  0  0  0  0
   91.7901   26.0910  173.3259 C   0  0  0  0  0  0  0  0  0  0  0  0
   91.7088   24.5702  173.4668 C   0  0  0  0  0  0  0  0  0  0  0  0
   90.7086   24.1608  174.5534 C   0  0  0  0  0  0  0  0  0  0  0  0
   89.2833   24.6435  174.2776 C   0  0  0  0  0  0  0  0  0  0  0  0
   88.3927   23.5703  173.6441 C   0  0  0  0  0  0  0  0  0  0  0  0
   86.9351   23.7502  174.0767 C   0  0  0  0  0  0  0  0  0  0  0  0
   86.0096   22.7324  173.4055 C   0  0  0  0  0  0  0  0  0  0  0  0
   84.5524   23.1883  173.4927 C   0  0  0  0  0  0  0  0  0  0  0  0
   83.5376   22.0456  173.5918 C   0  0  0  0  0  0  0  0  0  0  0  0
   83.9889   20.7332  172.9410 C   0  0  0  0  0  0  0  0  0  0  0  0
   82.9133   19.6419  172.9974 C   0  0  0  0  0  0  0  0  0  0  0  0
   83.3996   18.3525  172.3327 C   0  0  0  0  0  0  0  0  0  0  0  0
   82.3095   17.2992  172.1105 C   0  0  0  0  0  0  0  0  0  0  0  0
   81.1727   17.6948  171.1618 C   0  0  0  0  0  0  0  0  0  0  0  0
   80.7940   16.6100  170.1526 C   0  0  0  0  0  0  0  0  0  0  0  0
   81.9237   16.2764  169.1707 C   0  0  0  0  0  0  0  0  0  0  0  0
   81.6313   15.1471  168.1755 C   0  0  0  0  0  0  0  0  0  0  0  0
   82.8583   14.4579  167.5704 C   0  0  0  0  0  0  0  0  0  0  0  0
   83.1349   13.0754  168.1675 C   0  0  0  0  0  0  0  0  0  0  0  0
   83.7610   12.1390  167.1303 C   0  0  0  0  0  0  0  0  0  0  0  0
   84.6214   11.0327  167.7489 C   0  0  0  0  0  0  0  0  0  0  0  0
   84.2253   10.6856  169.1871 C   0  0  0  0  0  0  0  0  0  0  0  0
   84.5413    9.2219  169.5091 C   0  0  0  0  0  0  0  0  0  0  0  0
   84.1828    8.8229  170.9424 C   0  0  0  0  0  0  0  0  0  0  0  0
   84.4580    7.3598  171.2526 C   0  0  0  0  0  0  0  0  0  0  0  0
  1  6  1  0
  1 27  1  6
  1 30  1  0
  3  2  1  1
  2 31  1  0
  3  4  1  0
 30  3  1  0
  5  4  1  0
  4 32  1  1
  6  5  1  0
  5 29  1  1
  6 28  1  6
  8  7  1  0
  9  8  1  0
 10  9  1  0
 11 10  1  0
 12 11  1  0
 13 12  1  0
 14 13  1  0
 15 14  1  0
 16 15  1  0
 17 16  1  0
 18 17  1  0
 19 18  1  0
 20 19  1  0
 21 20  1  0
 21 22  1  6
 23 21  1  0
 23 24  1  6
 25 23  1  0
 25 26  1  1
 25 44  1  0
 26 27  1  0
 32 33  1  0
 33 34  1  0
 34 35  2  0
 34 43  1  0
 35 36  1  0
 36 37  2  0
 37 38  1  0
 37 42  1  0
 38 39  1  6
 38 40  1  0
 38 41  1  0
 42 43  2  0
 44 45  1  0
 45 46  2  0
 45 47  1  0
 47 48  1  0
 48 49  1  0
 49 50  1  0
 50 51  1  0
 51 52  1  0
 52 53  1  0
 53 54  1  0
 54 55  1  0
 55 56  1  0
 56 57  1  0
 57 58  1  0
 58 59  1  0
 59 60  1  0
 60 61  1  0
 61 62  1  0
 62 63  1  0
 63 64  1  0
 64 65  1  0
 65 66  1  0
 66 67  1  0
 67 68  1  0
 68 69  1  0
 69 70  1  0
 70 71  1  0
M  END
$$$$
