
     RDKit          3D

 71 72  0  0  0  0  0  0  0  0999 V2000
   94.9107   26.3336  173.1488 C   0  0  1  0  0  0  0  0  0  0  0  0
   97.9139   25.3807  173.8336 C   0  0  0  0  0  0  0  0  0  0  0  0
   97.2601   26.7174  173.4551 C   0  0  2  0  0  0  0  0  0  0  0  0
   96.8352   27.5939  174.6711 C   0  0  1  0  0  0  0  0  0  0  0  0
   95.7072   28.5081  174.1763 C   0  0  1  0  0  0  0  0  0  0  0  0
   94.4797   27.6749  173.7977 C   0  0  1  0  0  0  0  0  0  0  0  0
   84.8113   14.0853  176.0912 C   0  0  0  0  0  0  0  0  0  0  0  0
   84.9972   14.2697  174.5929 C   0  0  0  0  0  0  0  0  0  0  0  0
   84.7846   15.7101  174.1200 C   0  0  0  0  0  0  0  0  0  0  0  0
   85.0293   15.9636  172.6298 C   0  0  0  0  0  0  0  0  0  0  0  0
   84.7797   17.4122  172.2043 C   0  0  0  0  0  0  0  0  0  0  0  0
   85.0648   17.6001  170.7133 C   0  0  0  0  0  0  0  0  0  0  0  0
   85.6925   18.9656  170.4230 C   0  0  0  0  0  0  0  0  0  0  0  0
   87.1760   18.9653  170.7936 C   0  0  0  0  0  0  0  0  0  0  0  0
   87.8856   20.2927  170.5159 C   0  0  0  0  0  0  0  0  0  0  0  0
   89.3632   20.2906  170.9211 C   0  0  0  0  0  0  0  0  0  0  0  0
   90.3135   20.3310  169.7168 C   0  0  0  0  0  0  0  0  0  0  0  0
   91.3592   21.4398  169.8401 C   0  0  0  0  0  0  0  0  0  0  0  0
   91.3943   22.3519  168.6102 C   0  0  0  0  0  0  0  0  0  0  0  0
   90.2968   23.4130  168.7286 C   0  0  0  0  0  0  0  0  0  0  0  0
   90.7492   24.6902  169.4370 C   0  0  1  0  0  0  0  0  0  0  0  0
   89.6121   25.3791  169.9594 O   0  0  0  0  0  0  0  0  0  0  0  0
   91.7925   24.4279  170.5555 C   0  0  1  0  0  0  0  0  0  0  0  0
   91.6669   23.0619  170.9988 O   0  0  0  0  0  0  0  0  0  0  0  0
   93.2715   24.7201  170.1843 C   0  0  2  0  0  0  0  0  0  0  0  0
   94.2252   24.8449  171.3912 C   0  0  0  0  0  0  0  0  0  0  0  0
   93.9202   26.0108  172.1691 O   0  0  0  0  0  0  0  0  0  0  0  0
   93.6769   28.4885  172.9136 O   0  0  0  0  0  0  0  0  0  0  0  0
   95.3384   29.5194  175.1202 O   0  0  0  0  0  0  0  0  0  0  0  0
   96.1854   26.4731  172.5208 O   0  0  0  0  0  0  0  0  0  0  0  0
   98.3761   24.6623  172.6986 O   0  0  0  0  0  0  0  0  0  0  0  0
   96.4242   26.7148  175.7398 O   0  0  0  0  0  0  0  0  0  0  0  0
   97.4668   26.2519  176.6042 C   0  0  0  0  0  0  0  0  0  0  0  0
   97.6418   27.1168  177.8254 C   0  0  0  0  0  0  0  0  0  0  0  0
   96.8390   26.9149  178.9537 C   0  0  0  0  0  0  0  0  0  0  0  0
   96.9719   27.7275  180.0843 C   0  0  0  0  0  0  0  0  0  0  0  0
   97.9106   28.7702  180.1278 C   0  0  0  0  0  0  0  0  0  0  0  0
   98.0897   29.6724  181.3616 C   0  0  2  0  0  0  0  0  0  0  0  0
   96.9054   29.6179  182.3524 C   0  0  0  0  0  0  0  0  0  0  0  0
   98.2464   31.1434  180.9198 C   0  0  0  0  0  0  0  0  0  0  0  0
   99.3537   29.2346  182.1323 C   0  0  0  0  0  0  0  0  0  0  0  0
   98.7097   28.9631  178.9838 C   0  0  0  0  0  0  0  0  0  0  0  0
   98.5795   28.1511  177.8511 C   0  0  0  0  0  0  0  0  0  0  0  0
   93.3376   25.9438  169.3603 N   0  0  0  0  0  0  0  0  0  0  0  0
   93.7139   25.8738  168.0364 C   0  0  0  0  0  0  0  0  0  0  0  0
   94.2401   24.8795  167.5477 O   0  0  0  0  0  0  0  0  0  0  0  0
   93.3874   27.1202  167.2372 C   0  0  0  0  0  0  0  0  0  0  0  0
   92.2006   26.9030  166.2973 C   0  0  0  0  0  0  0  0  0  0  0  0
   92.6389   26.9180  164.8287 C   0  0  0  0  0  0  0  0  0  0  0  0
   91.6583   26.2036  163.8966 C   0  0  0  0  0  0  0  0  0  0  0  0
   90.8655   27.1619  163.0026 C   0  0  0  0  0  0  0  0  0  0  0  0
   89.4992   26.5685  162.6486 C   0  0  0  0  0  0  0  0  0  0  0  0
   88.6320   27.5570  161.8653 C   0  0  0  0  0  0  0  0  0  0  0  0
   88.5930   27.1837  160.3828 C   0  0  0  0  0  0  0  0  0  0  0  0
   87.3155   26.4603  159.9467 C   0  0  0  0  0  0  0  0  0  0  0  0
   86.2379   27.3724  159.3495 C   0  0  0  0  0  0  0  0  0  0  0  0
   85.1197   26.5910  158.6497 C   0  0  0  0  0  0  0  0  0  0  0  0
   84.2236   27.5227  157.8314 C   0  0  0  0  0  0  0  0  0  0  0  0
   84.0246   28.9140  158.4409 C   0  0  0  0  0  0  0  0  0  0  0  0
   82.6716   29.1681  159.1144 C   0  0  0  0  0  0  0  0  0  0  0  0
   81.5006   29.2929  158.1386 C   0  0  0  0  0  0  0  0  0  0  0  0
   80.2699   29.9697  158.7543 C   0  0  0  0  0  0  0  0  0  0  0  0
   80.0753   29.7581  160.2605 C   0  0  0  0  0  0  0  0  0  0  0  0
   79.2220   30.8098  160.9763 C   0  0  0  0  0  0  0  0  0  0  0  0
   80.0329   31.7268  161.8961 C   0  0  0  0  0  0  0  0  0  0  0  0
   79.9493   33.1854  161.4377 C   0  0  0  0  0  0  0  0  0  0  0  0
   80.9196   34.1127  162.1764 C   0  0  0  0  0  0  0  0  0  0  0  0
   81.2693   35.3795  161.3897 C   0  0  0  0  0  0  0  0  0  0  0  0
   82.0501   36.3709  162.2576 C   0  0  0  0  0  0  0  0  0  0  0  0
   83.3715   35.8080  162.7861 C   0  0  0  0  0  0  0  0  0  0  0  0
   84.2084   36.8291  163.5405 C   0  0  0  0  0  0  0  0  0  0  0  0
  1  6  1  0
  1 27  1  6
  1 30  1  0
  3  2  1  1
  2 31  1  0
  3  4  1  0
 30  3  1  0
  5  4  1  0
  4 32  1  1
  6  5  1  0
  5 29  1  1
  6 28  1  6
  8  7  1  0
  9  8  1  0
 10  9  1  0
 11 10  1  0
 12 11  1  0
 13 12  1  0
 14 13  1  0
 15 14  1  0
 16 15  1  0
 17 16  1  0
 18 17  1  0
 19 18  1  0
 20 19  1  0
 21 20  1  0
 21 22  1  1
 23 21  1  0
 23 24  1  6
 25 23  1  0
 25 26  1  1
 25 44  1  0
 26 27  1  0
 32 33  1  0
 33 34  1  0
 34 35  2  0
 34 43  1  0
 35 36  1  0
 36 37  2  0
 37 38  1  0
 37 42  1  0
 38 39  1  1
 38 40  1  0
 38 41  1  0
 42 43  2  0
 44 45  1  0
 45 46  2  0
 45 47  1  0
 47 48  1  0
 48 49  1  0
 49 50  1  0
 50 51  1  0
 51 52  1  0
 52 53  1  0
 53 54  1  0
 54 55  1  0
 55 56  1  0
 56 57  1  0
 57 58  1  0
 58 59  1  0
 59 60  1  0
 60 61  1  0
 61 62  1  0
 62 63  1  0
 63 64  1  0
 64 65  1  0
 65 66  1  0
 66 67  1  0
 67 68  1  0
 68 69  1  0
 69 70  1  0
 70 71  1  0
M  END
$$$$
