
     RDKit          3D

 71 72  0  0  0  0  0  0  0  0999 V2000
   94.1408   29.2483  170.0787 C   0  0  1  0  0  0  0  0  0  0  0  0
   93.2837   27.5595  172.6883 C   0  0  0  0  0  0  0  0  0  0  0  0
   93.8086   27.2030  171.2901 C   0  0  2  0  0  0  0  0  0  0  0  0
   95.3559   27.0424  171.2044 C   0  0  1  0  0  0  0  0  0  0  0  0
   95.7420   27.3136  169.7448 C   0  0  1  0  0  0  0  0  0  0  0  0
   95.4406   28.7698  169.3805 C   0  0  1  0  0  0  0  0  0  0  0  0
   88.3401   25.2558  155.0663 C   0  0  0  0  0  0  0  0  0  0  0  0
   87.1864   25.6402  155.9799 C   0  0  0  0  0  0  0  0  0  0  0  0
   87.5581   26.6895  157.0307 C   0  0  0  0  0  0  0  0  0  0  0  0
   86.4183   27.1474  157.9451 C   0  0  0  0  0  0  0  0  0  0  0  0
   86.8253   28.2440  158.9318 C   0  0  0  0  0  0  0  0  0  0  0  0
   85.6309   28.6882  159.7777 C   0  0  0  0  0  0  0  0  0  0  0  0
   85.2712   30.1546  159.5263 C   0  0  0  0  0  0  0  0  0  0  0  0
   84.1905   30.6184  160.5036 C   0  0  0  0  0  0  0  0  0  0  0  0
   84.6475   30.6526  161.9640 C   0  0  0  0  0  0  0  0  0  0  0  0
   86.1632   30.5044  162.1321 C   0  0  0  0  0  0  0  0  0  0  0  0
   86.6010   30.4687  163.6025 C   0  0  0  0  0  0  0  0  0  0  0  0
   87.8819   29.6590  163.8068 C   0  0  0  0  0  0  0  0  0  0  0  0
   88.3549   29.6678  165.2635 C   0  0  0  0  0  0  0  0  0  0  0  0
   89.7525   29.0485  165.3515 C   0  0  0  0  0  0  0  0  0  0  0  0
   90.1200   28.5548  166.7511 C   0  0  1  0  0  0  0  0  0  0  0  0
   90.4906   27.1765  166.6930 O   0  0  0  0  0  0  0  0  0  0  0  0
   91.2409   29.3960  167.4175 C   0  0  1  0  0  0  0  0  0  0  0  0
   91.2824   30.6948  166.7931 O   0  0  0  0  0  0  0  0  0  0  0  0
   91.1381   29.5626  168.9577 C   0  0  2  0  0  0  0  0  0  0  0  0
   92.1724   30.5301  169.5708 C   0  0  0  0  0  0  0  0  0  0  0  0
   93.5060   30.1679  169.1862 O   0  0  0  0  0  0  0  0  0  0  0  0
   95.3538   28.8324  167.9394 O   0  0  0  0  0  0  0  0  0  0  0  0
   97.1103   27.0104  169.4519 O   0  0  0  0  0  0  0  0  0  0  0  0
   93.2751   28.1406  170.3289 O   0  0  0  0  0  0  0  0  0  0  0  0
   92.1093   28.3571  172.6397 O   0  0  0  0  0  0  0  0  0  0  0  0
   95.9583   27.9707  172.1314 O   0  0  0  0  0  0  0  0  0  0  0  0
   97.0094   27.4448  172.9482 C   0  0  0  0  0  0  0  0  0  0  0  0
   96.7011   26.0716  173.4863 C   0  0  0  0  0  0  0  0  0  0  0  0
   95.4852   25.8242  174.1333 C   0  0  0  0  0  0  0  0  0  0  0  0
   95.1968   24.5616  174.6616 C   0  0  0  0  0  0  0  0  0  0  0  0
   96.1123   23.5023  174.5627 C   0  0  0  0  0  0  0  0  0  0  0  0
   95.8186   22.0988  175.1217 C   0  0  2  0  0  0  0  0  0  0  0  0
   96.2337   21.9155  176.5987 C   0  0  0  0  0  0  0  0  0  0  0  0
   96.5783   21.0353  174.2999 C   0  0  0  0  0  0  0  0  0  0  0  0
   94.3021   21.8235  175.0332 C   0  0  0  0  0  0  0  0  0  0  0  0
   97.3329   23.7670  173.9111 C   0  0  0  0  0  0  0  0  0  0  0  0
   97.6242   25.0293  173.3808 C   0  0  0  0  0  0  0  0  0  0  0  0
   91.2421   28.2380  169.6021 N   0  0  0  0  0  0  0  0  0  0  0  0
   90.1127   27.4809  169.8266 C   0  0  0  0  0  0  0  0  0  0  0  0
   89.1435   27.9030  170.4486 O   0  0  0  0  0  0  0  0  0  0  0  0
   90.1658   26.0980  169.2072 C   0  0  0  0  0  0  0  0  0  0  0  0
   89.3139   25.0909  169.9813 C   0  0  0  0  0  0  0  0  0  0  0  0
   89.3086   23.7191  169.2978 C   0  0  0  0  0  0  0  0  0  0  0  0
   88.4176   22.6945  170.0028 C   0  0  0  0  0  0  0  0  0  0  0  0
   88.0222   23.1115  171.4226 C   0  0  0  0  0  0  0  0  0  0  0  0
   87.1558   22.0354  172.0827 C   0  0  0  0  0  0  0  0  0  0  0  0
   86.7220   20.9589  171.0848 C   0  0  0  0  0  0  0  0  0  0  0  0
   85.7622   19.9674  171.7439 C   0  0  0  0  0  0  0  0  0  0  0  0
   85.7508   20.0213  173.2744 C   0  0  0  0  0  0  0  0  0  0  0  0
   84.8587   18.9695  173.9434 C   0  0  0  0  0  0  0  0  0  0  0  0
   84.9339   19.0140  175.4741 C   0  0  0  0  0  0  0  0  0  0  0  0
   84.9523   17.6038  176.0673 C   0  0  0  0  0  0  0  0  0  0  0  0
   85.0397   17.5561  177.5960 C   0  0  0  0  0  0  0  0  0  0  0  0
   85.0401   16.1600  178.2284 C   0  0  0  0  0  0  0  0  0  0  0  0
   84.4085   15.0766  177.3531 C   0  0  0  0  0  0  0  0  0  0  0  0
   84.4216   13.6886  178.0051 C   0  0  0  0  0  0  0  0  0  0  0  0
   83.9487   12.5303  177.1185 C   0  0  0  0  0  0  0  0  0  0  0  0
   82.5761   11.9442  177.4639 C   0  0  0  0  0  0  0  0  0  0  0  0
   81.5388   12.1307  176.3533 C   0  0  0  0  0  0  0  0  0  0  0  0
   82.2108   12.2600  174.9835 C   0  0  0  0  0  0  0  0  0  0  0  0
   81.2153   12.3731  173.8247 C   0  0  0  0  0  0  0  0  0  0  0  0
   81.4001   11.2923  172.7554 C   0  0  0  0  0  0  0  0  0  0  0  0
   82.0266   11.8739  171.4845 C   0  0  0  0  0  0  0  0  0  0  0  0
   83.5547   11.7922  171.4669 C   0  0  0  0  0  0  0  0  0  0  0  0
   84.1840   12.4469  170.2472 C   0  0  0  0  0  0  0  0  0  0  0  0
  1  6  1  0
  1 27  1  6
  1 30  1  0
  3  2  1  1
  2 31  1  0
  3  4  1  0
 30  3  1  0
  5  4  1  0
  4 32  1  1
  6  5  1  0
  5 29  1  1
  6 28  1  6
  8  7  1  0
  9  8  1  0
 10  9  1  0
 11 10  1  0
 12 11  1  0
 13 12  1  0
 14 13  1  0
 15 14  1  0
 16 15  1  0
 17 16  1  0
 18 17  1  0
 19 18  1  0
 20 19  1  0
 21 20  1  0
 21 22  1  6
 23 21  1  0
 23 24  1  6
 25 23  1  0
 25 26  1  1
 25 44  1  0
 26 27  1  0
 32 33  1  0
 33 34  1  0
 34 35  2  0
 34 43  1  0
 35 36  1  0
 36 37  2  0
 37 38  1  0
 37 42  1  0
 38 39  1  1
 38 40  1  0
 38 41  1  0
 42 43  2  0
 44 45  1  0
 45 46  2  0
 45 47  1  0
 47 48  1  0
 48 49  1  0
 49 50  1  0
 50 51  1  0
 51 52  1  0
 52 53  1  0
 53 54  1  0
 54 55  1  0
 55 56  1  0
 56 57  1  0
 57 58  1  0
 58 59  1  0
 59 60  1  0
 60 61  1  0
 61 62  1  0
 62 63  1  0
 63 64  1  0
 64 65  1  0
 65 66  1  0
 66 67  1  0
 67 68  1  0
 68 69  1  0
 69 70  1  0
 70 71  1  0
M  END
$$$$
