
     RDKit          3D

 71 72  0  0  0  0  0  0  0  0999 V2000
   94.1138   29.6427  170.6588 C   0  0  1  0  0  0  0  0  0  0  0  0
   97.0101   30.0444  169.2998 C   0  0  0  0  0  0  0  0  0  0  0  0
   95.5625   30.3223  168.8698 C   0  0  2  0  0  0  0  0  0  0  0  0
   95.0650   31.7663  169.1772 C   0  0  1  0  0  0  0  0  0  0  0  0
   93.5365   31.6881  169.2797 C   0  0  1  0  0  0  0  0  0  0  0  0
   93.1309   30.8294  170.4807 C   0  0  1  0  0  0  0  0  0  0  0  0
   85.3484   10.7672  176.4363 C   0  0  0  0  0  0  0  0  0  0  0  0
   86.2430   11.5828  175.5155 C   0  0  0  0  0  0  0  0  0  0  0  0
   85.6440   12.9335  175.1151 C   0  0  0  0  0  0  0  0  0  0  0  0
   86.3741   13.6783  173.9938 C   0  0  0  0  0  0  0  0  0  0  0  0
   86.7762   15.1072  174.3660 C   0  0  0  0  0  0  0  0  0  0  0  0
   87.4925   15.7936  173.2019 C   0  0  0  0  0  0  0  0  0  0  0  0
   87.7912   17.2636  173.5066 C   0  0  0  0  0  0  0  0  0  0  0  0
   86.8737   18.1784  172.6945 C   0  0  0  0  0  0  0  0  0  0  0  0
   87.6176   19.1104  171.7351 C   0  0  0  0  0  0  0  0  0  0  0  0
   87.6485   20.5690  172.2034 C   0  0  0  0  0  0  0  0  0  0  0  0
   89.0657   21.0658  172.5188 C   0  0  0  0  0  0  0  0  0  0  0  0
   89.2265   22.5640  172.2587 C   0  0  0  0  0  0  0  0  0  0  0  0
   90.5864   22.9099  171.6450 C   0  0  0  0  0  0  0  0  0  0  0  0
   91.5442   23.3679  172.7484 C   0  0  0  0  0  0  0  0  0  0  0  0
   91.5217   24.8766  172.9958 C   0  0  1  0  0  0  0  0  0  0  0  0
   91.1540   25.1361  174.3515 O   0  0  0  0  0  0  0  0  0  0  0  0
   92.8667   25.5692  172.6505 C   0  0  1  0  0  0  0  0  0  0  0  0
   93.9458   24.6517  172.9191 O   0  0  0  0  0  0  0  0  0  0  0  0
   92.9959   26.1142  171.2025 C   0  0  2  0  0  0  0  0  0  0  0  0
   94.0027   27.2723  171.0382 C   0  0  0  0  0  0  0  0  0  0  0  0
   93.3486   28.5431  171.1593 O   0  0  0  0  0  0  0  0  0  0  0  0
   91.7722   30.3966  170.2471 O   0  0  0  0  0  0  0  0  0  0  0  0
   92.9048   32.9704  169.3610 O   0  0  0  0  0  0  0  0  0  0  0  0
   94.7017   29.2929  169.4054 O   0  0  0  0  0  0  0  0  0  0  0  0
   97.8906   29.9202  168.1920 O   0  0  0  0  0  0  0  0  0  0  0  0
   95.6927   32.2096  170.3993 O   0  0  0  0  0  0  0  0  0  0  0  0
   95.5072   33.5892  170.7323 C   0  0  0  0  0  0  0  0  0  0  0  0
   96.0701   34.5231  169.6925 C   0  0  0  0  0  0  0  0  0  0  0  0
   95.5633   35.8209  169.5616 C   0  0  0  0  0  0  0  0  0  0  0  0
   96.0577   36.6895  168.5831 C   0  0  0  0  0  0  0  0  0  0  0  0
   97.0748   36.2927  167.7010 C   0  0  0  0  0  0  0  0  0  0  0  0
   97.6486   37.2295  166.6233 C   0  0  2  0  0  0  0  0  0  0  0  0
   98.9555   36.7144  165.9797 C   0  0  0  0  0  0  0  0  0  0  0  0
   97.9576   38.6117  167.2376 C   0  0  0  0  0  0  0  0  0  0  0  0
   96.6131   37.3954  165.4903 C   0  0  0  0  0  0  0  0  0  0  0  0
   97.5732   34.9827  167.8431 C   0  0  0  0  0  0  0  0  0  0  0  0
   97.0810   34.1113  168.8217 C   0  0  0  0  0  0  0  0  0  0  0  0
   91.6654   26.5292  170.7143 N   0  0  0  0  0  0  0  0  0  0  0  0
   91.4533   26.7510  169.3708 C   0  0  0  0  0  0  0  0  0  0  0  0
   92.2025   26.3200  168.5006 O   0  0  0  0  0  0  0  0  0  0  0  0
   90.1965   27.5434  169.0689 C   0  0  0  0  0  0  0  0  0  0  0  0
   90.0471   27.8325  167.5744 C   0  0  0  0  0  0  0  0  0  0  0  0
   88.8147   27.1343  166.9891 C   0  0  0  0  0  0  0  0  0  0  0  0
   88.6600   27.3419  165.4813 C   0  0  0  0  0  0  0  0  0  0  0  0
   87.4617   26.5953  164.8873 C   0  0  0  0  0  0  0  0  0  0  0  0
   87.3727   26.8270  163.3765 C   0  0  0  0  0  0  0  0  0  0  0  0
   85.9417   26.6684  162.8569 C   0  0  0  0  0  0  0  0  0  0  0  0
   85.8934   25.6604  161.7078 C   0  0  0  0  0  0  0  0  0  0  0  0
   85.5831   26.2758  160.3401 C   0  0  0  0  0  0  0  0  0  0  0  0
   84.7912   27.5872  160.3952 C   0  0  0  0  0  0  0  0  0  0  0  0
   83.4108   27.4753  159.7375 C   0  0  0  0  0  0  0  0  0  0  0  0
   83.0488   28.7610  158.9914 C   0  0  0  0  0  0  0  0  0  0  0  0
   83.2921   30.0488  159.7846 C   0  0  0  0  0  0  0  0  0  0  0  0
   83.0827   31.3611  159.0211 C   0  0  0  0  0  0  0  0  0  0  0  0
   83.2665   32.6173  159.8737 C   0  0  0  0  0  0  0  0  0  0  0  0
   83.8384   33.8034  159.0877 C   0  0  0  0  0  0  0  0  0  0  0  0
   82.8124   34.8205  158.5740 C   0  0  0  0  0  0  0  0  0  0  0  0
   81.9697   34.3701  157.3765 C   0  0  0  0  0  0  0  0  0  0  0  0
   80.5351   34.9042  157.4078 C   0  0  0  0  0  0  0  0  0  0  0  0
   79.7166   34.3625  156.2325 C   0  0  0  0  0  0  0  0  0  0  0  0
   78.4127   33.6817  156.6606 C   0  0  0  0  0  0  0  0  0  0  0  0
   78.5535   32.1703  156.8649 C   0  0  0  0  0  0  0  0  0  0  0  0
   77.2003   31.5276  157.1839 C   0  0  0  0  0  0  0  0  0  0  0  0
   77.2769   30.4582  158.2759 C   0  0  0  0  0  0  0  0  0  0  0  0
   75.9186   29.9124  158.6879 C   0  0  0  0  0  0  0  0  0  0  0  0
  1  6  1  0
  1 27  1  6
  1 30  1  0
  3  2  1  1
  2 31  1  0
  3  4  1  0
 30  3  1  0
  5  4  1  0
  4 32  1  1
  6  5  1  0
  5 29  1  1
  6 28  1  6
  8  7  1  0
  9  8  1  0
 10  9  1  0
 11 10  1  0
 12 11  1  0
 13 12  1  0
 14 13  1  0
 15 14  1  0
 16 15  1  0
 17 16  1  0
 18 17  1  0
 19 18  1  0
 20 19  1  0
 21 20  1  0
 21 22  1  1
 23 21  1  0
 23 24  1  6
 25 23  1  0
 25 26  1  1
 25 44  1  0
 26 27  1  0
 32 33  1  0
 33 34  1  0
 34 35  2  0
 34 43  1  0
 35 36  1  0
 36 37  2  0
 37 38  1  0
 37 42  1  0
 38 39  1  6
 38 40  1  0
 38 41  1  0
 42 43  2  0
 44 45  1  0
 45 46  2  0
 45 47  1  0
 47 48  1  0
 48 49  1  0
 49 50  1  0
 50 51  1  0
 51 52  1  0
 52 53  1  0
 53 54  1  0
 54 55  1  0
 55 56  1  0
 56 57  1  0
 57 58  1  0
 58 59  1  0
 59 60  1  0
 60 61  1  0
 61 62  1  0
 62 63  1  0
 63 64  1  0
 64 65  1  0
 65 66  1  0
 66 67  1  0
 67 68  1  0
 68 69  1  0
 69 70  1  0
 70 71  1  0
M  END
$$$$
