
     RDKit          3D

 71 72  0  0  0  0  0  0  0  0999 V2000
   94.0130   24.3589  172.0823 C   0  0  1  0  0  0  0  0  0  0  0  0
   92.0373   24.0797  174.6152 C   0  0  0  0  0  0  0  0  0  0  0  0
   92.0138   23.5850  173.1618 C   0  0  2  0  0  0  0  0  0  0  0  0
   92.6013   22.1566  172.9578 C   0  0  1  0  0  0  0  0  0  0  0  0
   93.0683   22.0817  171.4986 C   0  0  1  0  0  0  0  0  0  0  0  0
   94.2233   23.0587  171.2629 C   0  0  1  0  0  0  0  0  0  0  0  0
   86.1430   33.1929  156.6925 C   0  0  0  0  0  0  0  0  0  0  0  0
   85.6467   32.3118  157.8286 C   0  0  0  0  0  0  0  0  0  0  0  0
   85.7990   30.8132  157.5555 C   0  0  0  0  0  0  0  0  0  0  0  0
   85.4983   29.8879  158.7380 C   0  0  0  0  0  0  0  0  0  0  0  0
   86.3367   30.1892  159.9822 C   0  0  0  0  0  0  0  0  0  0  0  0
   86.3304   29.0013  160.9457 C   0  0  0  0  0  0  0  0  0  0  0  0
   86.5756   29.4414  162.3911 C   0  0  0  0  0  0  0  0  0  0  0  0
   88.0499   29.2751  162.7611 C   0  0  0  0  0  0  0  0  0  0  0  0
   88.3840   29.7093  164.1902 C   0  0  0  0  0  0  0  0  0  0  0  0
   89.8588   29.5148  164.5575 C   0  0  0  0  0  0  0  0  0  0  0  0
   90.1658   29.8845  166.0149 C   0  0  0  0  0  0  0  0  0  0  0  0
   91.6679   29.9708  166.2874 C   0  0  0  0  0  0  0  0  0  0  0  0
   91.9796   30.3717  167.7323 C   0  0  0  0  0  0  0  0  0  0  0  0
   93.3050   29.7385  168.1645 C   0  0  0  0  0  0  0  0  0  0  0  0
   93.6534   28.4593  167.4028 C   0  0  1  0  0  0  0  0  0  0  0  0
   94.3731   28.7886  166.2136 O   0  0  0  0  0  0  0  0  0  0  0  0
   94.4487   27.4390  168.2599 C   0  0  1  0  0  0  0  0  0  0  0  0
   95.7752   27.9557  168.4877 O   0  0  0  0  0  0  0  0  0  0  0  0
   93.8039   27.0456  169.6163 C   0  0  2  0  0  0  0  0  0  0  0  0
   93.9709   25.5605  170.0015 C   0  0  0  0  0  0  0  0  0  0  0  0
   94.5549   25.4301  171.3051 O   0  0  0  0  0  0  0  0  0  0  0  0
   94.2837   23.3014  169.8396 O   0  0  0  0  0  0  0  0  0  0  0  0
   93.4526   20.7643  171.0906 O   0  0  0  0  0  0  0  0  0  0  0  0
   92.6213   24.5820  172.3105 O   0  0  0  0  0  0  0  0  0  0  0  0
   92.7025   25.3274  174.7528 O   0  0  0  0  0  0  0  0  0  0  0  0
   93.6737   21.9697  173.9060 O   0  0  0  0  0  0  0  0  0  0  0  0
   93.6201   20.7676  174.6810 C   0  0  0  0  0  0  0  0  0  0  0  0
   92.3098   20.0376  174.5391 C   0  0  0  0  0  0  0  0  0  0  0  0
   91.9896   18.9877  175.4071 C   0  0  0  0  0  0  0  0  0  0  0  0
   90.7890   18.2835  175.2701 C   0  0  0  0  0  0  0  0  0  0  0  0
   89.8663   18.6026  174.2617 C   0  0  0  0  0  0  0  0  0  0  0  0
   88.5314   17.8555  174.0938 C   0  0  2  0  0  0  0  0  0  0  0  0
   88.3117   16.7292  175.1285 C   0  0  0  0  0  0  0  0  0  0  0  0
   88.4631   17.2075  172.6941 C   0  0  0  0  0  0  0  0  0  0  0  0
   87.3659   18.8559  174.2494 C   0  0  0  0  0  0  0  0  0  0  0  0
   90.2034   19.6599  173.3939 C   0  0  0  0  0  0  0  0  0  0  0  0
   91.4039   20.3670  173.5289 C   0  0  0  0  0  0  0  0  0  0  0  0
   92.3717   27.4050  169.6009 N   0  0  0  0  0  0  0  0  0  0  0  0
   91.8391   28.1915  170.5994 C   0  0  0  0  0  0  0  0  0  0  0  0
   92.4328   29.1541  171.0740 O   0  0  0  0  0  0  0  0  0  0  0  0
   90.4449   27.7792  171.0298 C   0  0  0  0  0  0  0  0  0  0  0  0
   89.7566   26.9056  169.9799 C   0  0  0  0  0  0  0  0  0  0  0  0
   88.2605   27.2230  169.8806 C   0  0  0  0  0  0  0  0  0  0  0  0
   87.5597   26.4868  168.7371 C   0  0  0  0  0  0  0  0  0  0  0  0
   86.0323   26.5075  168.8500 C   0  0  0  0  0  0  0  0  0  0  0  0
   85.4271   25.2327  168.2559 C   0  0  0  0  0  0  0  0  0  0  0  0
   83.9675   25.4324  167.8404 C   0  0  0  0  0  0  0  0  0  0  0  0
   83.7627   25.0312  166.3790 C   0  0  0  0  0  0  0  0  0  0  0  0
   82.6858   25.8378  165.6473 C   0  0  0  0  0  0  0  0  0  0  0  0
   82.4636   27.2514  166.1970 C   0  0  0  0  0  0  0  0  0  0  0  0
   81.5115   28.0829  165.3294 C   0  0  0  0  0  0  0  0  0  0  0  0
   81.3423   29.4952  165.8928 C   0  0  0  0  0  0  0  0  0  0  0  0
   81.1096   30.5798  164.8361 C   0  0  0  0  0  0  0  0  0  0  0  0
   80.9817   30.0943  163.3881 C   0  0  0  0  0  0  0  0  0  0  0  0
   80.9818   31.2169  162.3495 C   0  0  0  0  0  0  0  0  0  0  0  0
   82.3096   31.9815  162.2855 C   0  0  0  0  0  0  0  0  0  0  0  0
   83.5318   31.1616  161.8553 C   0  0  0  0  0  0  0  0  0  0  0  0
   84.8067   31.9633  161.5746 C   0  0  0  0  0  0  0  0  0  0  0  0
   85.2633   31.8875  160.1151 C   0  0  0  0  0  0  0  0  0  0  0  0
   86.1448   30.6590  159.8734 C   0  0  0  0  0  0  0  0  0  0  0  0
   87.6352   30.9224  160.1100 C   0  0  0  0  0  0  0  0  0  0  0  0
   88.5062   30.6381  158.8827 C   0  0  0  0  0  0  0  0  0  0  0  0
   89.6776   29.7175  159.2379 C   0  0  0  0  0  0  0  0  0  0  0  0
   90.4702   29.2427  158.0179 C   0  0  0  0  0  0  0  0  0  0  0  0
   91.7826   28.5618  158.3735 C   0  0  0  0  0  0  0  0  0  0  0  0
  1  6  1  0
  1 27  1  6
  1 30  1  0
  3  2  1  1
  2 31  1  0
  3  4  1  0
 30  3  1  0
  5  4  1  0
  4 32  1  1
  6  5  1  0
  5 29  1  1
  6 28  1  6
  8  7  1  0
  9  8  1  0
 10  9  1  0
 11 10  1  0
 12 11  1  0
 13 12  1  0
 14 13  1  0
 15 14  1  0
 16 15  1  0
 17 16  1  0
 18 17  1  0
 19 18  1  0
 20 19  1  0
 21 20  1  0
 21 22  1  6
 23 21  1  0
 23 24  1  1
 25 23  1  0
 25 26  1  6
 25 44  1  0
 26 27  1  0
 32 33  1  0
 33 34  1  0
 34 35  2  0
 34 43  1  0
 35 36  1  0
 36 37  2  0
 37 38  1  0
 37 42  1  0
 38 39  1  1
 38 40  1  0
 38 41  1  0
 42 43  2  0
 44 45  1  0
 45 46  2  0
 45 47  1  0
 47 48  1  0
 48 49  1  0
 49 50  1  0
 50 51  1  0
 51 52  1  0
 52 53  1  0
 53 54  1  0
 54 55  1  0
 55 56  1  0
 56 57  1  0
 57 58  1  0
 58 59  1  0
 59 60  1  0
 60 61  1  0
 61 62  1  0
 62 63  1  0
 63 64  1  0
 64 65  1  0
 65 66  1  0
 66 67  1  0
 67 68  1  0
 68 69  1  0
 69 70  1  0
 70 71  1  0
M  END
$$$$
