
     RDKit          3D

 71 72  0  0  0  0  0  0  0  0999 V2000
   89.8569   23.4142  170.1752 C   0  0  1  0  0  0  0  0  0  0  0  0
   86.9000   22.9252  168.9859 C   0  0  0  0  0  0  0  0  0  0  0  0
   88.2204   22.1417  168.9654 C   0  0  2  0  0  0  0  0  0  0  0  0
   88.3658   21.0943  170.1095 C   0  0  1  0  0  0  0  0  0  0  0  0
   89.8708   20.8848  170.3199 C   0  0  1  0  0  0  0  0  0  0  0  0
   90.5167   22.1744  170.8336 C   0  0  1  0  0  0  0  0  0  0  0  0
   83.6473   31.8252  152.3631 C   0  0  0  0  0  0  0  0  0  0  0  0
   84.7262   31.1801  153.2194 C   0  0  0  0  0  0  0  0  0  0  0  0
   84.4460   31.2575  154.7223 C   0  0  0  0  0  0  0  0  0  0  0  0
   85.5163   30.6457  155.6306 C   0  0  0  0  0  0  0  0  0  0  0  0
   85.1562   30.6858  157.1174 C   0  0  0  0  0  0  0  0  0  0  0  0
   85.7990   29.5176  157.8666 C   0  0  0  0  0  0  0  0  0  0  0  0
   86.2457   29.9224  159.2736 C   0  0  0  0  0  0  0  0  0  0  0  0
   86.8465   28.7260  160.0122 C   0  0  0  0  0  0  0  0  0  0  0  0
   87.1989   29.0120  161.4739 C   0  0  0  0  0  0  0  0  0  0  0  0
   86.7832   27.8908  162.4320 C   0  0  0  0  0  0  0  0  0  0  0  0
   86.4166   28.4048  163.8307 C   0  0  0  0  0  0  0  0  0  0  0  0
   86.3876   27.2847  164.8711 C   0  0  0  0  0  0  0  0  0  0  0  0
   86.7953   27.7692  166.2657 C   0  0  0  0  0  0  0  0  0  0  0  0
   88.2908   27.5183  166.4777 C   0  0  0  0  0  0  0  0  0  0  0  0
   88.7261   27.5935  167.9415 C   0  0  1  0  0  0  0  0  0  0  0  0
   87.6331   28.0390  168.7461 O   0  0  0  0  0  0  0  0  0  0  0  0
   89.2898   26.2508  168.4777 C   0  0  1  0  0  0  0  0  0  0  0  0
   88.4537   25.1740  168.0090 O   0  0  0  0  0  0  0  0  0  0  0  0
   90.7716   25.9494  168.1258 C   0  0  2  0  0  0  0  0  0  0  0  0
   91.3016   24.6057  168.6692 C   0  0  0  0  0  0  0  0  0  0  0  0
   90.8832   24.3988  170.0254 O   0  0  0  0  0  0  0  0  0  0  0  0
   91.9300   22.0784  170.5478 O   0  0  0  0  0  0  0  0  0  0  0  0
   90.1768   19.8003  171.2030 O   0  0  0  0  0  0  0  0  0  0  0  0
   89.3238   23.0718  168.8956 O   0  0  0  0  0  0  0  0  0  0  0  0
   87.0739   24.2905  168.6343 O   0  0  0  0  0  0  0  0  0  0  0  0
   87.6964   21.6087  171.2805 O   0  0  0  0  0  0  0  0  0  0  0  0
   86.3398   21.1890  171.4596 C   0  0  0  0  0  0  0  0  0  0  0  0
   86.1652   20.2565  172.6301 C   0  0  0  0  0  0  0  0  0  0  0  0
   86.8271   19.0238  172.6546 C   0  0  0  0  0  0  0  0  0  0  0  0
   86.6533   18.1366  173.7218 C   0  0  0  0  0  0  0  0  0  0  0  0
   85.8125   18.4489  174.8015 C   0  0  0  0  0  0  0  0  0  0  0  0
   85.6113   17.4999  175.9962 C   0  0  2  0  0  0  0  0  0  0  0  0
   84.9317   16.1630  175.6242 C   0  0  0  0  0  0  0  0  0  0  0  0
   84.7271   18.1784  177.0645 C   0  0  0  0  0  0  0  0  0  0  0  0
   86.9854   17.1605  176.6128 C   0  0  0  0  0  0  0  0  0  0  0  0
   85.1510   19.6921  174.7617 C   0  0  0  0  0  0  0  0  0  0  0  0
   85.3234   20.5823  173.6954 C   0  0  0  0  0  0  0  0  0  0  0  0
   91.6238   27.0577  168.6018 N   0  0  0  0  0  0  0  0  0  0  0  0
   92.4315   27.7443  167.7213 C   0  0  0  0  0  0  0  0  0  0  0  0
   92.0739   28.0420  166.5866 O   0  0  0  0  0  0  0  0  0  0  0  0
   93.7825   28.1250  168.2946 C   0  0  0  0  0  0  0  0  0  0  0  0
   94.2244   29.5177  167.8423 C   0  0  0  0  0  0  0  0  0  0  0  0
   93.9749   30.5661  168.9321 C   0  0  0  0  0  0  0  0  0  0  0  0
   94.6452   30.2259  170.2647 C   0  0  0  0  0  0  0  0  0  0  0  0
   93.7516   30.4984  171.4785 C   0  0  0  0  0  0  0  0  0  0  0  0
   93.5527   29.2236  172.3029 C   0  0  0  0  0  0  0  0  0  0  0  0
   94.7150   28.9797  173.2685 C   0  0  0  0  0  0  0  0  0  0  0  0
   94.5397   27.6474  173.9984 C   0  0  0  0  0  0  0  0  0  0  0  0
   95.0963   26.4360  173.2446 C   0  0  0  0  0  0  0  0  0  0  0  0
   94.4859   25.0918  173.6575 C   0  0  0  0  0  0  0  0  0  0  0  0
   93.8105   24.3628  172.4900 C   0  0  0  0  0  0  0  0  0  0  0  0
   94.2046   22.8848  172.4597 C   0  0  0  0  0  0  0  0  0  0  0  0
   93.3970   22.0294  171.4783 C   0  0  0  0  0  0  0  0  0  0  0  0
   91.8979   22.3359  171.3918 C   0  0  0  0  0  0  0  0  0  0  0  0
   91.0028   21.2604  172.0091 C   0  0  0  0  0  0  0  0  0  0  0  0
   90.3557   20.3406  170.9666 C   0  0  0  0  0  0  0  0  0  0  0  0
   89.0721   19.6284  171.4099 C   0  0  0  0  0  0  0  0  0  0  0  0
   88.1100   19.2287  170.2869 C   0  0  0  0  0  0  0  0  0  0  0  0
   86.6424   19.2069  170.7230 C   0  0  0  0  0  0  0  0  0  0  0  0
   85.9899   17.8587  170.4049 C   0  0  0  0  0  0  0  0  0  0  0  0
   85.7413   16.9944  171.6451 C   0  0  0  0  0  0  0  0  0  0  0  0
   84.3493   16.3562  171.6735 C   0  0  0  0  0  0  0  0  0  0  0  0
   84.2018   15.4052  172.8650 C   0  0  0  0  0  0  0  0  0  0  0  0
   84.0193   13.9417  172.4567 C   0  0  0  0  0  0  0  0  0  0  0  0
   83.7445   13.0135  173.6295 C   0  0  0  0  0  0  0  0  0  0  0  0
  1  6  1  0
  1 27  1  6
  1 30  1  0
  3  2  1  1
  2 31  1  0
  3  4  1  0
 30  3  1  0
  5  4  1  0
  4 32  1  1
  6  5  1  0
  5 29  1  1
  6 28  1  6
  8  7  1  0
  9  8  1  0
 10  9  1  0
 11 10  1  0
 12 11  1  0
 13 12  1  0
 14 13  1  0
 15 14  1  0
 16 15  1  0
 17 16  1  0
 18 17  1  0
 19 18  1  0
 20 19  1  0
 21 20  1  0
 21 22  1  1
 23 21  1  0
 23 24  1  6
 25 23  1  0
 25 26  1  1
 25 44  1  0
 26 27  1  0
 32 33  1  0
 33 34  1  0
 34 35  2  0
 34 43  1  0
 35 36  1  0
 36 37  2  0
 37 38  1  0
 37 42  1  0
 38 39  1  6
 38 40  1  0
 38 41  1  0
 42 43  2  0
 44 45  1  0
 45 46  2  0
 45 47  1  0
 47 48  1  0
 48 49  1  0
 49 50  1  0
 50 51  1  0
 51 52  1  0
 52 53  1  0
 53 54  1  0
 54 55  1  0
 55 56  1  0
 56 57  1  0
 57 58  1  0
 58 59  1  0
 59 60  1  0
 60 61  1  0
 61 62  1  0
 62 63  1  0
 63 64  1  0
 64 65  1  0
 65 66  1  0
 66 67  1  0
 67 68  1  0
 68 69  1  0
 69 70  1  0
 70 71  1  0
M  END
$$$$
