
     RDKit          3D

 71 72  0  0  0  0  0  0  0  0999 V2000
   91.5030   28.9138  167.2320 C   0  0  1  0  0  0  0  0  0  0  0  0
   93.3427   29.0342  164.5866 C   0  0  0  0  0  0  0  0  0  0  0  0
   92.3713   28.0072  165.1862 C   0  0  2  0  0  0  0  0  0  0  0  0
   90.9098   28.1181  164.6582 C   0  0  1  0  0  0  0  0  0  0  0  0
   90.0079   27.5131  165.7415 C   0  0  1  0  0  0  0  0  0  0  0  0
   90.0700   28.3612  167.0147 C   0  0  1  0  0  0  0  0  0  0  0  0
   86.9665   14.4998  170.1468 C   0  0  0  0  0  0  0  0  0  0  0  0
   86.6216   15.6918  171.0265 C   0  0  0  0  0  0  0  0  0  0  0  0
   86.0689   16.8893  170.2494 C   0  0  0  0  0  0  0  0  0  0  0  0
   85.5139   18.0352  171.1003 C   0  0  0  0  0  0  0  0  0  0  0  0
   85.0068   19.2215  170.2773 C   0  0  0  0  0  0  0  0  0  0  0  0
   85.8214   20.4812  170.5759 C   0  0  0  0  0  0  0  0  0  0  0  0
   85.3251   21.1924  171.8371 C   0  0  0  0  0  0  0  0  0  0  0  0
   86.4933   21.5059  172.7726 C   0  0  0  0  0  0  0  0  0  0  0  0
   86.6720   22.9977  173.0642 C   0  0  0  0  0  0  0  0  0  0  0  0
   86.7593   23.3205  174.5595 C   0  0  0  0  0  0  0  0  0  0  0  0
   88.1562   23.7883  174.9896 C   0  0  0  0  0  0  0  0  0  0  0  0
   89.0835   24.0196  173.7961 C   0  0  0  0  0  0  0  0  0  0  0  0
   89.9045   25.3054  173.9321 C   0  0  0  0  0  0  0  0  0  0  0  0
   90.7723   25.4928  172.6845 C   0  0  0  0  0  0  0  0  0  0  0  0
   90.1655   26.4404  171.6493 C   0  0  1  0  0  0  0  0  0  0  0  0
   89.0220   27.0915  172.2051 O   0  0  0  0  0  0  0  0  0  0  0  0
   91.1813   27.4822  171.1100 C   0  0  1  0  0  0  0  0  0  0  0  0
   91.9365   28.0132  172.2173 O   0  0  0  0  0  0  0  0  0  0  0  0
   92.1550   26.9740  170.0128 C   0  0  2  0  0  0  0  0  0  0  0  0
   92.7449   28.0805  169.1131 C   0  0  0  0  0  0  0  0  0  0  0  0
   91.7171   28.9648  168.6450 O   0  0  0  0  0  0  0  0  0  0  0  0
   89.6276   27.5186  168.1021 O   0  0  0  0  0  0  0  0  0  0  0  0
   88.6469   27.3549  165.3264 O   0  0  0  0  0  0  0  0  0  0  0  0
   92.4653   28.0492  166.6273 O   0  0  0  0  0  0  0  0  0  0  0  0
   94.5457   28.4372  164.1239 O   0  0  0  0  0  0  0  0  0  0  0  0
   90.6277   29.5099  164.3987 O   0  0  0  0  0  0  0  0  0  0  0  0
   89.2458   29.8822  164.4210 C   0  0  0  0  0  0  0  0  0  0  0  0
   88.6801   30.1152  163.0442 C   0  0  0  0  0  0  0  0  0  0  0  0
   88.5997   31.4121  162.5248 C   0  0  0  0  0  0  0  0  0  0  0  0
   88.0522   31.6461  161.2592 C   0  0  0  0  0  0  0  0  0  0  0  0
   87.5654   30.5937  160.4682 C   0  0  0  0  0  0  0  0  0  0  0  0
   86.9699   30.8176  159.0670 C   0  0  2  0  0  0  0  0  0  0  0  0
   87.4030   29.7592  158.0280 C   0  0  0  0  0  0  0  0  0  0  0  0
   87.4069   32.1949  158.5232 C   0  0  0  0  0  0  0  0  0  0  0  0
   85.4294   30.7704  159.1559 C   0  0  0  0  0  0  0  0  0  0  0  0
   87.6506   29.2941  161.0053 C   0  0  0  0  0  0  0  0  0  0  0  0
   88.1987   29.0566  162.2712 C   0  0  0  0  0  0  0  0  0  0  0  0
   91.4732   25.9597  169.1838 N   0  0  0  0  0  0  0  0  0  0  0  0
   92.1243   25.3776  168.1178 C   0  0  0  0  0  0  0  0  0  0  0  0
   92.8678   26.0053  167.3711 O   0  0  0  0  0  0  0  0  0  0  0  0
   91.8646   23.8906  167.9756 C   0  0  0  0  0  0  0  0  0  0  0  0
   90.6053   23.6052  167.1558 C   0  0  0  0  0  0  0  0  0  0  0  0
   90.5243   22.1299  166.7485 C   0  0  0  0  0  0  0  0  0  0  0  0
   89.5675   21.3129  167.6190 C   0  0  0  0  0  0  0  0  0  0  0  0
   89.8327   21.4676  169.1196 C   0  0  0  0  0  0  0  0  0  0  0  0
   88.9703   20.4930  169.9263 C   0  0  0  0  0  0  0  0  0  0  0  0
   88.9168   20.8692  171.4090 C   0  0  0  0  0  0  0  0  0  0  0  0
   88.5963   19.6435  172.2655 C   0  0  0  0  0  0  0  0  0  0  0  0
   88.8407   19.8389  173.7647 C   0  0  0  0  0  0  0  0  0  0  0  0
   89.5042   18.6469  174.4638 C   0  0  0  0  0  0  0  0  0  0  0  0
   88.5712   17.9479  175.4595 C   0  0  0  0  0  0  0  0  0  0  0  0
   88.9052   18.3423  176.8996 C   0  0  0  0  0  0  0  0  0  0  0  0
   88.0613   17.6369  177.9660 C   0  0  0  0  0  0  0  0  0  0  0  0
   88.5202   16.2311  178.3684 C   0  0  0  0  0  0  0  0  0  0  0  0
   87.4572   15.4119  179.1019 C   0  0  0  0  0  0  0  0  0  0  0  0
   86.9098   14.2469  178.2683 C   0  0  0  0  0  0  0  0  0  0  0  0
   85.3829   14.1689  178.1523 C   0  0  0  0  0  0  0  0  0  0  0  0
   84.8421   13.1393  177.1552 C   0  0  0  0  0  0  0  0  0  0  0  0
   83.8198   13.7212  176.1751 C   0  0  0  0  0  0  0  0  0  0  0  0
   84.4529   14.7966  175.2877 C   0  0  0  0  0  0  0  0  0  0  0  0
   83.4739   15.4106  174.2820 C   0  0  0  0  0  0  0  0  0  0  0  0
   84.1269   16.4245  173.3378 C   0  0  0  0  0  0  0  0  0  0  0  0
   85.2772   15.7871  172.5528 C   0  0  0  0  0  0  0  0  0  0  0  0
   85.8698   16.7092  171.4849 C   0  0  0  0  0  0  0  0  0  0  0  0
   87.3124   16.3819  171.1321 C   0  0  0  0  0  0  0  0  0  0  0  0
  1  6  1  0
  1 27  1  1
  1 30  1  0
  3  2  1  6
  2 31  1  0
  3  4  1  0
 30  3  1  0
  5  4  1  0
  4 32  1  1
  6  5  1  0
  5 29  1  6
  6 28  1  1
  8  7  1  0
  9  8  1  0
 10  9  1  0
 11 10  1  0
 12 11  1  0
 13 12  1  0
 14 13  1  0
 15 14  1  0
 16 15  1  0
 17 16  1  0
 18 17  1  0
 19 18  1  0
 20 19  1  0
 21 20  1  0
 21 22  1  1
 23 21  1  0
 23 24  1  1
 25 23  1  0
 25 26  1  6
 25 44  1  0
 26 27  1  0
 32 33  1  0
 33 34  1  0
 34 35  2  0
 34 43  1  0
 35 36  1  0
 36 37  2  0
 37 38  1  0
 37 42  1  0
 38 39  1  6
 38 40  1  0
 38 41  1  0
 42 43  2  0
 44 45  1  0
 45 46  2  0
 45 47  1  0
 47 48  1  0
 48 49  1  0
 49 50  1  0
 50 51  1  0
 51 52  1  0
 52 53  1  0
 53 54  1  0
 54 55  1  0
 55 56  1  0
 56 57  1  0
 57 58  1  0
 58 59  1  0
 59 60  1  0
 60 61  1  0
 61 62  1  0
 62 63  1  0
 63 64  1  0
 64 65  1  0
 65 66  1  0
 66 67  1  0
 67 68  1  0
 68 69  1  0
 69 70  1  0
 70 71  1  0
M  END
$$$$
