
     RDKit          3D

 71 72  0  0  0  0  0  0  0  0999 V2000
   92.8924   22.9651  169.0769 C   0  0  1  0  0  0  0  0  0  0  0  0
   90.1728   21.6671  170.2241 C   0  0  0  0  0  0  0  0  0  0  0  0
   90.5259   22.5664  169.0307 C   0  0  2  0  0  0  0  0  0  0  0  0
   90.8036   21.7975  167.7045 C   0  0  1  0  0  0  0  0  0  0  0  0
   91.7032   22.7044  166.8550 C   0  0  1  0  0  0  0  0  0  0  0  0
   93.0615   22.8890  167.5369 C   0  0  1  0  0  0  0  0  0  0  0  0
   93.9503   27.6507  184.4633 C   0  0  0  0  0  0  0  0  0  0  0  0
   94.5545   27.2680  183.1209 C   0  0  0  0  0  0  0  0  0  0  0  0
   96.0629   27.5140  183.0335 C   0  0  0  0  0  0  0  0  0  0  0  0
   96.7115   27.1947  181.6835 C   0  0  0  0  0  0  0  0  0  0  0  0
   98.2212   27.4431  181.6534 C   0  0  0  0  0  0  0  0  0  0  0  0
   98.8208   27.0010  180.3176 C   0  0  0  0  0  0  0  0  0  0  0  0
   98.2214   27.7766  179.1419 C   0  0  0  0  0  0  0  0  0  0  0  0
   99.2662   27.9816  178.0444 C   0  0  0  0  0  0  0  0  0  0  0  0
   98.6913   28.5234  176.7334 C   0  0  0  0  0  0  0  0  0  0  0  0
   99.1741   27.7613  175.4949 C   0  0  0  0  0  0  0  0  0  0  0  0
   98.3713   28.1023  174.2324 C   0  0  0  0  0  0  0  0  0  0  0  0
   97.1594   27.1878  174.0509 C   0  0  0  0  0  0  0  0  0  0  0  0
   96.4509   27.4122  172.7118 C   0  0  0  0  0  0  0  0  0  0  0  0
   95.0030   27.8412  172.9645 C   0  0  0  0  0  0  0  0  0  0  0  0
   94.1258   27.8154  171.7124 C   0  0  1  0  0  0  0  0  0  0  0  0
   94.4425   28.9324  170.8802 O   0  0  0  0  0  0  0  0  0  0  0  0
   94.2419   26.4884  170.9162 C   0  0  1  0  0  0  0  0  0  0  0  0
   95.6365   26.2007  170.6910 O   0  0  0  0  0  0  0  0  0  0  0  0
   93.5526   25.2526  171.5550 C   0  0  2  0  0  0  0  0  0  0  0  0
   94.0147   23.8935  170.9884 C   0  0  0  0  0  0  0  0  0  0  0  0
   93.8940   23.8646  169.5594 O   0  0  0  0  0  0  0  0  0  0  0  0
   93.6502   24.0863  166.9818 O   0  0  0  0  0  0  0  0  0  0  0  0
   91.8892   22.2299  165.5172 O   0  0  0  0  0  0  0  0  0  0  0  0
   91.5954   23.4609  169.4098 O   0  0  0  0  0  0  0  0  0  0  0  0
   90.3081   22.3390  171.4684 O   0  0  0  0  0  0  0  0  0  0  0  0
   91.4221   20.5357  168.0351 O   0  0  0  0  0  0  0  0  0  0  0  0
   90.5265   19.4505  168.2975 C   0  0  0  0  0  0  0  0  0  0  0  0
   89.5502   19.2128  167.1748 C   0  0  0  0  0  0  0  0  0  0  0  0
   89.8523   19.6365  165.8758 C   0  0  0  0  0  0  0  0  0  0  0  0
   88.9441   19.4466  164.8292 C   0  0  0  0  0  0  0  0  0  0  0  0
   87.7026   18.8276  165.0430 C   0  0  0  0  0  0  0  0  0  0  0  0
   86.6883   18.5925  163.9098 C   0  0  2  0  0  0  0  0  0  0  0  0
   87.2800   18.7749  162.4942 C   0  0  0  0  0  0  0  0  0  0  0  0
   85.5116   19.5832  164.0425 C   0  0  0  0  0  0  0  0  0  0  0  0
   86.1507   17.1481  164.0002 C   0  0  0  0  0  0  0  0  0  0  0  0
   87.4115   18.4088  166.3561 C   0  0  0  0  0  0  0  0  0  0  0  0
   88.3185   18.5968  167.4055 C   0  0  0  0  0  0  0  0  0  0  0  0
   92.0879   25.3840  171.4201 N   0  0  0  0  0  0  0  0  0  0  0  0
   91.4338   26.4757  171.9488 C   0  0  0  0  0  0  0  0  0  0  0  0
   91.9791   27.2755  172.7019 O   0  0  0  0  0  0  0  0  0  0  0  0
   89.9960   26.6141  171.4880 C   0  0  0  0  0  0  0  0  0  0  0  0
   89.6361   25.5829  170.4173 C   0  0  0  0  0  0  0  0  0  0  0  0
   88.2193   25.0351  170.6208 C   0  0  0  0  0  0  0  0  0  0  0  0
   87.5337   25.5797  171.8754 C   0  0  0  0  0  0  0  0  0  0  0  0
   86.1830   24.9170  172.1630 C   0  0  0  0  0  0  0  0  0  0  0  0
   85.3016   24.9162  170.9111 C   0  0  0  0  0  0  0  0  0  0  0  0
   84.8038   26.3208  170.5612 C   0  0  0  0  0  0  0  0  0  0  0  0
   83.9543   26.2912  169.2899 C   0  0  0  0  0  0  0  0  0  0  0  0
   83.2097   27.5970  168.9970 C   0  0  0  0  0  0  0  0  0  0  0  0
   82.0650   27.4659  167.9860 C   0  0  0  0  0  0  0  0  0  0  0  0
   81.4825   28.8217  167.5695 C   0  0  0  0  0  0  0  0  0  0  0  0
   81.9128   29.1948  166.1495 C   0  0  0  0  0  0  0  0  0  0  0  0
   80.7565   29.5024  165.1928 C   0  0  0  0  0  0  0  0  0  0  0  0
   80.8244   30.8485  164.4632 C   0  0  0  0  0  0  0  0  0  0  0  0
   82.1155   31.0674  163.6732 C   0  0  0  0  0  0  0  0  0  0  0  0
   82.0006   30.6555  162.2005 C   0  0  0  0  0  0  0  0  0  0  0  0
   82.4291   31.7131  161.1763 C   0  0  0  0  0  0  0  0  0  0  0  0
   81.6469   31.7205  159.8592 C   0  0  0  0  0  0  0  0  0  0  0  0
   82.2390   30.7919  158.7955 C   0  0  0  0  0  0  0  0  0  0  0  0
   81.4097   30.8238  157.5086 C   0  0  0  0  0  0  0  0  0  0  0  0
   81.1015   32.2417  157.0174 C   0  0  0  0  0  0  0  0  0  0  0  0
   80.2503   32.2736  155.7445 C   0  0  0  0  0  0  0  0  0  0  0  0
   80.1606   33.6928  155.1754 C   0  0  0  0  0  0  0  0  0  0  0  0
   79.3644   33.7763  153.8711 C   0  0  0  0  0  0  0  0  0  0  0  0
   79.2649   35.1859  153.3094 C   0  0  0  0  0  0  0  0  0  0  0  0
  1  6  1  0
  1 27  1  6
  1 30  1  0
  3  2  1  1
  2 31  1  0
  3  4  1  0
 30  3  1  0
  5  4  1  0
  4 32  1  1
  6  5  1  0
  5 29  1  6
  6 28  1  6
  8  7  1  0
  9  8  1  0
 10  9  1  0
 11 10  1  0
 12 11  1  0
 13 12  1  0
 14 13  1  0
 15 14  1  0
 16 15  1  0
 17 16  1  0
 18 17  1  0
 19 18  1  0
 20 19  1  0
 21 20  1  0
 21 22  1  6
 23 21  1  0
 23 24  1  1
 25 23  1  0
 25 26  1  6
 25 44  1  0
 26 27  1  0
 32 33  1  0
 33 34  1  0
 34 35  2  0
 34 43  1  0
 35 36  1  0
 36 37  2  0
 37 38  1  0
 37 42  1  0
 38 39  1  6
 38 40  1  0
 38 41  1  0
 42 43  2  0
 44 45  1  0
 45 46  2  0
 45 47  1  0
 47 48  1  0
 48 49  1  0
 49 50  1  0
 50 51  1  0
 51 52  1  0
 52 53  1  0
 53 54  1  0
 54 55  1  0
 55 56  1  0
 56 57  1  0
 57 58  1  0
 58 59  1  0
 59 60  1  0
 60 61  1  0
 61 62  1  0
 62 63  1  0
 63 64  1  0
 64 65  1  0
 65 66  1  0
 66 67  1  0
 67 68  1  0
 68 69  1  0
 69 70  1  0
 70 71  1  0
M  END
$$$$
