
     RDKit          3D

 71 72  0  0  0  0  0  0  0  0999 V2000
   92.0006   27.1269  172.3913 C   0  0  1  0  0  0  0  0  0  0  0  0
   89.8623   29.4643  171.7905 C   0  0  0  0  0  0  0  0  0  0  0  0
   90.1996   28.1115  171.1472 C   0  0  2  0  0  0  0  0  0  0  0  0
   89.3459   26.9182  171.6712 C   0  0  1  0  0  0  0  0  0  0  0  0
   90.1771   25.6508  171.4349 C   0  0  1  0  0  0  0  0  0  0  0  0
   91.4441   25.6823  172.2940 C   0  0  1  0  0  0  0  0  0  0  0  0
   86.9892   12.7485  171.4194 C   0  0  0  0  0  0  0  0  0  0  0  0
   87.5732   13.5260  172.5889 C   0  0  0  0  0  0  0  0  0  0  0  0
   89.0907   13.7103  172.5077 C   0  0  0  0  0  0  0  0  0  0  0  0
   89.6484   14.9504  173.2121 C   0  0  0  0  0  0  0  0  0  0  0  0
   91.1621   15.1148  173.0591 C   0  0  0  0  0  0  0  0  0  0  0  0
   91.6576   16.3446  173.8218 C   0  0  0  0  0  0  0  0  0  0  0  0
   93.1787   16.4920  173.7343 C   0  0  0  0  0  0  0  0  0  0  0  0
   93.5641   17.9506  173.4854 C   0  0  0  0  0  0  0  0  0  0  0  0
   92.8811   18.5737  172.2657 C   0  0  0  0  0  0  0  0  0  0  0  0
   93.2448   20.0464  172.0494 C   0  0  0  0  0  0  0  0  0  0  0  0
   94.5480   20.2308  171.2603 C   0  0  0  0  0  0  0  0  0  0  0  0
   94.6982   21.6502  170.7120 C   0  0  0  0  0  0  0  0  0  0  0  0
   95.8221   22.4292  171.4017 C   0  0  0  0  0  0  0  0  0  0  0  0
   95.3615   23.8652  171.6668 C   0  0  0  0  0  0  0  0  0  0  0  0
   96.5094   24.8689  171.7796 C   0  0  1  0  0  0  0  0  0  0  0  0
   97.1731   24.9842  170.5200 O   0  0  0  0  0  0  0  0  0  0  0  0
   96.0510   26.2620  172.2871 C   0  0  1  0  0  0  0  0  0  0  0  0
   97.1396   26.8782  173.0038 O   0  0  0  0  0  0  0  0  0  0  0  0
   95.5244   27.2388  171.2013 C   0  0  2  0  0  0  0  0  0  0  0  0
   94.1158   27.8067  171.4753 C   0  0  0  0  0  0  0  0  0  0  0  0
   93.4252   27.0182  172.4545 O   0  0  0  0  0  0  0  0  0  0  0  0
   92.3826   24.7637  171.6912 O   0  0  0  0  0  0  0  0  0  0  0  0
   89.4520   24.4406  171.6789 O   0  0  0  0  0  0  0  0  0  0  0  0
   91.6232   27.8828  171.2402 O   0  0  0  0  0  0  0  0  0  0  0  0
   90.9399   30.3865  171.7108 O   0  0  0  0  0  0  0  0  0  0  0  0
   89.0520   27.1510  173.0653 O   0  0  0  0  0  0  0  0  0  0  0  0
   88.0124   26.3441  173.6280 C   0  0  0  0  0  0  0  0  0  0  0  0
   86.6506   26.6743  173.0744 C   0  0  0  0  0  0  0  0  0  0  0  0
   86.5286   27.4630  171.9250 C   0  0  0  0  0  0  0  0  0  0  0  0
   85.2704   27.7999  171.4154 C   0  0  0  0  0  0  0  0  0  0  0  0
   84.0901   27.3615  172.0358 C   0  0  0  0  0  0  0  0  0  0  0  0
   82.6919   27.7041  171.4918 C   0  0  2  0  0  0  0  0  0  0  0  0
   81.8226   26.4656  171.1795 C   0  0  0  0  0  0  0  0  0  0  0  0
   82.8199   28.5124  170.1826 C   0  0  0  0  0  0  0  0  0  0  0  0
   81.9317   28.5467  172.5385 C   0  0  0  0  0  0  0  0  0  0  0  0
   84.2286   26.5706  173.1933 C   0  0  0  0  0  0  0  0  0  0  0  0
   85.4864   26.2312  173.7053 C   0  0  0  0  0  0  0  0  0  0  0  0
   95.5515   26.5697  169.8851 N   0  0  0  0  0  0  0  0  0  0  0  0
   95.5173   27.3119  168.7245 C   0  0  0  0  0  0  0  0  0  0  0  0
   95.6949   28.5253  168.7071 O   0  0  0  0  0  0  0  0  0  0  0  0
   95.2751   26.4886  167.4745 C   0  0  0  0  0  0  0  0  0  0  0  0
   93.8978   26.7608  166.8676 C   0  0  0  0  0  0  0  0  0  0  0  0
   92.7774   26.4952  167.8791 C   0  0  0  0  0  0  0  0  0  0  0  0
   91.6479   25.6291  167.3183 C   0  0  0  0  0  0  0  0  0  0  0  0
   90.6157   25.2223  168.3744 C   0  0  0  0  0  0  0  0  0  0  0  0
   89.5924   24.2473  167.7856 C   0  0  0  0  0  0  0  0  0  0  0  0
   88.6723   23.6652  168.8615 C   0  0  0  0  0  0  0  0  0  0  0  0
   87.7914   22.5598  168.2778 C   0  0  0  0  0  0  0  0  0  0  0  0
   87.9687   22.3392  166.7726 C   0  0  0  0  0  0  0  0  0  0  0  0
   86.7593   22.7428  165.9216 C   0  0  0  0  0  0  0  0  0  0  0  0
   87.1595   23.3799  164.5856 C   0  0  0  0  0  0  0  0  0  0  0  0
   86.7979   24.8661  164.5523 C   0  0  0  0  0  0  0  0  0  0  0  0
   85.7713   25.2489  163.4815 C   0  0  0  0  0  0  0  0  0  0  0  0
   86.1987   25.0255  162.0268 C   0  0  0  0  0  0  0  0  0  0  0  0
   85.2830   25.6885  160.9968 C   0  0  0  0  0  0  0  0  0  0  0  0
   84.6501   26.9915  161.5002 C   0  0  0  0  0  0  0  0  0  0  0  0
   83.8889   27.8121  160.4523 C   0  0  0  0  0  0  0  0  0  0  0  0
   84.6144   29.0525  159.9216 C   0  0  0  0  0  0  0  0  0  0  0  0
   83.6929   30.2604  159.7308 C   0  0  0  0  0  0  0  0  0  0  0  0
   83.0205   30.2324  158.3554 C   0  0  0  0  0  0  0  0  0  0  0  0
   82.7512   31.6265  157.7803 C   0  0  0  0  0  0  0  0  0  0  0  0
   82.1236   31.5983  156.3835 C   0  0  0  0  0  0  0  0  0  0  0  0
   81.7784   33.0115  155.9043 C   0  0  0  0  0  0  0  0  0  0  0  0
   81.2251   33.0524  154.4780 C   0  0  0  0  0  0  0  0  0  0  0  0
   80.7094   34.4222  154.0656 C   0  0  0  0  0  0  0  0  0  0  0  0
  1  6  1  0
  1 27  1  6
  1 30  1  0
  3  2  1  1
  2 31  1  0
  3  4  1  0
 30  3  1  0
  5  4  1  0
  4 32  1  1
  6  5  1  0
  5 29  1  1
  6 28  1  6
  8  7  1  0
  9  8  1  0
 10  9  1  0
 11 10  1  0
 12 11  1  0
 13 12  1  0
 14 13  1  0
 15 14  1  0
 16 15  1  0
 17 16  1  0
 18 17  1  0
 19 18  1  0
 20 19  1  0
 21 20  1  0
 21 22  1  6
 23 21  1  0
 23 24  1  6
 25 23  1  0
 25 26  1  1
 25 44  1  0
 26 27  1  0
 32 33  1  0
 33 34  1  0
 34 35  2  0
 34 43  1  0
 35 36  1  0
 36 37  2  0
 37 38  1  0
 37 42  1  0
 38 39  1  6
 38 40  1  0
 38 41  1  0
 42 43  2  0
 44 45  1  0
 45 46  2  0
 45 47  1  0
 47 48  1  0
 48 49  1  0
 49 50  1  0
 50 51  1  0
 51 52  1  0
 52 53  1  0
 53 54  1  0
 54 55  1  0
 55 56  1  0
 56 57  1  0
 57 58  1  0
 58 59  1  0
 59 60  1  0
 60 61  1  0
 61 62  1  0
 62 63  1  0
 63 64  1  0
 64 65  1  0
 65 66  1  0
 66 67  1  0
 67 68  1  0
 68 69  1  0
 69 70  1  0
 70 71  1  0
M  END
$$$$
