
     RDKit          3D

 71 72  0  0  0  0  0  0  0  0999 V2000
   96.3511   28.3949  170.1091 C   0  0  1  0  0  0  0  0  0  0  0  0
   99.2066   29.4014  171.2182 C   0  0  0  0  0  0  0  0  0  0  0  0
   98.3734   28.1209  171.3726 C   0  0  2  0  0  0  0  0  0  0  0  0
   98.7189   26.9999  170.3475 C   0  0  1  0  0  0  0  0  0  0  0  0
   97.4666   26.1229  170.2219 C   0  0  1  0  0  0  0  0  0  0  0  0
   96.3179   26.9275  169.6076 C   0  0  1  0  0  0  0  0  0  0  0  0
   80.6620   24.7077  162.5237 C   0  0  0  0  0  0  0  0  0  0  0  0
   80.8433   24.6718  164.0334 C   0  0  0  0  0  0  0  0  0  0  0  0
   82.2828   24.9301  164.4857 C   0  0  0  0  0  0  0  0  0  0  0  0
   82.5154   24.9241  165.9993 C   0  0  0  0  0  0  0  0  0  0  0  0
   83.7520   25.7137  166.4338 C   0  0  0  0  0  0  0  0  0  0  0  0
   83.3519   26.9960  167.1654 C   0  0  0  0  0  0  0  0  0  0  0  0
   84.5585   27.9010  167.4261 C   0  0  0  0  0  0  0  0  0  0  0  0
   85.1983   28.3372  166.1076 C   0  0  0  0  0  0  0  0  0  0  0  0
   86.5673   29.0017  166.2718 C   0  0  0  0  0  0  0  0  0  0  0  0
   87.0248   29.1027  167.7307 C   0  0  0  0  0  0  0  0  0  0  0  0
   88.4937   29.5250  167.8687 C   0  0  0  0  0  0  0  0  0  0  0  0
   88.9136   29.6948  169.3291 C   0  0  0  0  0  0  0  0  0  0  0  0
   90.3277   29.1711  169.5972 C   0  0  0  0  0  0  0  0  0  0  0  0
   90.6923   29.4104  171.0650 C   0  0  0  0  0  0  0  0  0  0  0  0
   91.6752   30.5626  171.2752 C   0  0  1  0  0  0  0  0  0  0  0  0
   90.9576   31.7926  171.3871 O   0  0  0  0  0  0  0  0  0  0  0  0
   92.6016   30.3548  172.5027 C   0  0  1  0  0  0  0  0  0  0  0  0
   91.8139   29.8542  173.6015 O   0  0  0  0  0  0  0  0  0  0  0  0
   93.8273   29.4290  172.2774 C   0  0  2  0  0  0  0  0  0  0  0  0
   94.7796   29.8845  171.1516 C   0  0  0  0  0  0  0  0  0  0  0  0
   94.9924   28.8317  170.2010 O   0  0  0  0  0  0  0  0  0  0  0  0
   95.0932   26.2463  169.9600 O   0  0  0  0  0  0  0  0  0  0  0  0
   97.6828   24.9261  169.4666 O   0  0  0  0  0  0  0  0  0  0  0  0
   96.9706   28.4664  171.3937 O   0  0  0  0  0  0  0  0  0  0  0  0
   99.9319   29.4325  169.9971 O   0  0  0  0  0  0  0  0  0  0  0  0
   99.0984   27.6267  169.1036 O   0  0  0  0  0  0  0  0  0  0  0  0
  100.1871   27.0164  168.4030 C   0  0  0  0  0  0  0  0  0  0  0  0
   99.7588   26.3520  167.1204 C   0  0  0  0  0  0  0  0  0  0  0  0
   99.2187   27.1133  166.0778 C   0  0  0  0  0  0  0  0  0  0  0  0
   98.7919   26.5066  164.8920 C   0  0  0  0  0  0  0  0  0  0  0  0
   98.8890   25.1188  164.7060 C   0  0  0  0  0  0  0  0  0  0  0  0
   98.4406   24.4237  163.4082 C   0  0  2  0  0  0  0  0  0  0  0  0
   99.1964   23.1093  163.1105 C   0  0  0  0  0  0  0  0  0  0  0  0
   98.6669   25.3620  162.2032 C   0  0  0  0  0  0  0  0  0  0  0  0
   96.9395   24.0775  163.5094 C   0  0  0  0  0  0  0  0  0  0  0  0
   99.4321   24.3652  165.7651 C   0  0  0  0  0  0  0  0  0  0  0  0
   99.8608   24.9695  166.9526 C   0  0  0  0  0  0  0  0  0  0  0  0
   93.3606   28.0523  172.0173 N   0  0  0  0  0  0  0  0  0  0  0  0
   94.1532   26.9735  172.3449 C   0  0  0  0  0  0  0  0  0  0  0  0
   95.2804   26.8151  171.8882 O   0  0  0  0  0  0  0  0  0  0  0  0
   93.5190   26.0245  173.3429 C   0  0  0  0  0  0  0  0  0  0  0  0
   93.1621   24.6799  172.7074 C   0  0  0  0  0  0  0  0  0  0  0  0
   91.8423   24.1314  173.2608 C   0  0  0  0  0  0  0  0  0  0  0  0
   91.4360   22.7925  172.6422 C   0  0  0  0  0  0  0  0  0  0  0  0
   90.1157   22.2464  173.1943 C   0  0  0  0  0  0  0  0  0  0  0  0
   89.7363   20.9371  172.4971 C   0  0  0  0  0  0  0  0  0  0  0  0
   88.5757   20.2297  173.2012 C   0  0  0  0  0  0  0  0  0  0  0  0
   88.2837   18.8824  172.5393 C   0  0  0  0  0  0  0  0  0  0  0  0
   86.9626   18.8314  171.7662 C   0  0  0  0  0  0  0  0  0  0  0  0
   86.1985   17.5087  171.8949 C   0  0  0  0  0  0  0  0  0  0  0  0
   84.6827   17.7075  172.0105 C   0  0  0  0  0  0  0  0  0  0  0  0
   84.2217   18.9220  171.2021 C   0  0  0  0  0  0  0  0  0  0  0  0
   82.7014   19.0760  171.0933 C   0  0  0  0  0  0  0  0  0  0  0  0
   81.8829   18.5396  172.2728 C   0  0  0  0  0  0  0  0  0  0  0  0
   81.7633   17.0153  172.3094 C   0  0  0  0  0  0  0  0  0  0  0  0
   80.9534   16.5009  173.5057 C   0  0  0  0  0  0  0  0  0  0  0  0
   80.2721   17.5751  174.3620 C   0  0  0  0  0  0  0  0  0  0  0  0
   78.7703   17.7627  174.1249 C   0  0  0  0  0  0  0  0  0  0  0  0
   78.1289   18.7835  175.0689 C   0  0  0  0  0  0  0  0  0  0  0  0
   77.6476   18.1173  176.3608 C   0  0  0  0  0  0  0  0  0  0  0  0
   76.2119   17.5894  176.2758 C   0  0  0  0  0  0  0  0  0  0  0  0
   75.7909   16.7703  177.4995 C   0  0  0  0  0  0  0  0  0  0  0  0
   74.3641   16.2359  177.3422 C   0  0  0  0  0  0  0  0  0  0  0  0
   74.2895   14.9182  176.5676 C   0  0  0  0  0  0  0  0  0  0  0  0
   72.8762   14.3741  176.4292 C   0  0  0  0  0  0  0  0  0  0  0  0
  1  6  1  0
  1 27  1  1
  1 30  1  0
  3  2  1  6
  2 31  1  0
  3  4  1  0
 30  3  1  0
  5  4  1  0
  4 32  1  6
  6  5  1  0
  5 29  1  6
  6 28  1  1
  8  7  1  0
  9  8  1  0
 10  9  1  0
 11 10  1  0
 12 11  1  0
 13 12  1  0
 14 13  1  0
 15 14  1  0
 16 15  1  0
 17 16  1  0
 18 17  1  0
 19 18  1  0
 20 19  1  0
 21 20  1  0
 21 22  1  1
 23 21  1  0
 23 24  1  1
 25 23  1  0
 25 26  1  6
 25 44  1  0
 26 27  1  0
 32 33  1  0
 33 34  1  0
 34 35  2  0
 34 43  1  0
 35 36  1  0
 36 37  2  0
 37 38  1  0
 37 42  1  0
 38 39  1  6
 38 40  1  0
 38 41  1  0
 42 43  2  0
 44 45  1  0
 45 46  2  0
 45 47  1  0
 47 48  1  0
 48 49  1  0
 49 50  1  0
 50 51  1  0
 51 52  1  0
 52 53  1  0
 53 54  1  0
 54 55  1  0
 55 56  1  0
 56 57  1  0
 57 58  1  0
 58 59  1  0
 59 60  1  0
 60 61  1  0
 61 62  1  0
 62 63  1  0
 63 64  1  0
 64 65  1  0
 65 66  1  0
 66 67  1  0
 67 68  1  0
 68 69  1  0
 69 70  1  0
 70 71  1  0
M  END
$$$$
