
     RDKit          3D

 71 72  0  0  0  0  0  0  0  0999 V2000
   97.1095   30.3759  171.3778 C   0  0  1  0  0  0  0  0  0  0  0  0
   97.1747   33.5973  171.5005 C   0  0  0  0  0  0  0  0  0  0  0  0
   96.1224   32.5215  171.8054 C   0  0  2  0  0  0  0  0  0  0  0  0
   96.0770   32.0688  173.2955 C   0  0  1  0  0  0  0  0  0  0  0  0
   95.4861   30.6532  173.3030 C   0  0  1  0  0  0  0  0  0  0  0  0
   96.4304   29.6830  172.5880 C   0  0  1  0  0  0  0  0  0  0  0  0
   81.9698   26.8628  159.7001 C   0  0  0  0  0  0  0  0  0  0  0  0
   82.5560   25.6808  160.4569 C   0  0  0  0  0  0  0  0  0  0  0  0
   82.1530   25.6355  161.9331 C   0  0  0  0  0  0  0  0  0  0  0  0
   82.7631   24.4961  162.7543 C   0  0  0  0  0  0  0  0  0  0  0  0
   83.8701   24.9508  163.7080 C   0  0  0  0  0  0  0  0  0  0  0  0
   84.7884   23.7838  164.0747 C   0  0  0  0  0  0  0  0  0  0  0  0
   85.7634   24.1585  165.1935 C   0  0  0  0  0  0  0  0  0  0  0  0
   86.4312   25.5018  164.8974 C   0  0  0  0  0  0  0  0  0  0  0  0
   86.9853   26.2064  166.1380 C   0  0  0  0  0  0  0  0  0  0  0  0
   88.1612   27.1407  165.8344 C   0  0  0  0  0  0  0  0  0  0  0  0
   89.5099   26.5746  166.2986 C   0  0  0  0  0  0  0  0  0  0  0  0
   90.1549   27.4323  167.3878 C   0  0  0  0  0  0  0  0  0  0  0  0
   91.6273   27.7382  167.0979 C   0  0  0  0  0  0  0  0  0  0  0  0
   92.1986   28.6122  168.2179 C   0  0  0  0  0  0  0  0  0  0  0  0
   92.9992   29.8133  167.7139 C   0  0  1  0  0  0  0  0  0  0  0  0
   92.6478   30.9755  168.4664 O   0  0  0  0  0  0  0  0  0  0  0  0
   94.5329   29.5799  167.7502 C   0  0  1  0  0  0  0  0  0  0  0  0
   95.1528   30.3976  166.7376 O   0  0  0  0  0  0  0  0  0  0  0  0
   95.2244   29.8320  169.1172 C   0  0  2  0  0  0  0  0  0  0  0  0
   96.7646   29.7405  169.0859 C   0  0  0  0  0  0  0  0  0  0  0  0
   97.2840   29.3745  170.3719 O   0  0  0  0  0  0  0  0  0  0  0  0
   95.6401   28.5366  172.2016 O   0  0  0  0  0  0  0  0  0  0  0  0
   95.1898   30.1668  174.6166 O   0  0  0  0  0  0  0  0  0  0  0  0
   96.2806   31.4254  170.8775 O   0  0  0  0  0  0  0  0  0  0  0  0
   97.2775   33.8771  170.1116 O   0  0  0  0  0  0  0  0  0  0  0  0
   97.4184   32.1255  173.8258 O   0  0  0  0  0  0  0  0  0  0  0  0
   97.5239   32.3354  175.2376 C   0  0  0  0  0  0  0  0  0  0  0  0
   96.5740   33.3891  175.7453 C   0  0  0  0  0  0  0  0  0  0  0  0
   95.2828   33.0369  176.1538 C   0  0  0  0  0  0  0  0  0  0  0  0
   94.3814   34.0081  176.6018 C   0  0  0  0  0  0  0  0  0  0  0  0
   94.7376   35.3647  176.6570 C   0  0  0  0  0  0  0  0  0  0  0  0
   93.7731   36.4544  177.1576 C   0  0  2  0  0  0  0  0  0  0  0  0
   93.5993   37.6339  176.1748 C   0  0  0  0  0  0  0  0  0  0  0  0
   94.2888   37.0430  178.4885 C   0  0  0  0  0  0  0  0  0  0  0  0
   92.3773   35.8340  177.3818 C   0  0  0  0  0  0  0  0  0  0  0  0
   96.0397   35.7043  176.2401 C   0  0  0  0  0  0  0  0  0  0  0  0
   96.9442   34.7347  175.7920 C   0  0  0  0  0  0  0  0  0  0  0  0
   94.6833   28.8934  170.1208 N   0  0  0  0  0  0  0  0  0  0  0  0
   93.3281   28.6542  170.1929 C   0  0  0  0  0  0  0  0  0  0  0  0
   92.4929   29.5518  170.1586 O   0  0  0  0  0  0  0  0  0  0  0  0
   92.9666   27.1845  170.2833 C   0  0  0  0  0  0  0  0  0  0  0  0
   91.4615   26.9747  170.4563 C   0  0  0  0  0  0  0  0  0  0  0  0
   90.7910   26.6057  169.1285 C   0  0  0  0  0  0  0  0  0  0  0  0
   90.3244   25.1498  169.0696 C   0  0  0  0  0  0  0  0  0  0  0  0
   89.7782   24.7443  167.6973 C   0  0  0  0  0  0  0  0  0  0  0  0
   88.4230   24.0456  167.8375 C   0  0  0  0  0  0  0  0  0  0  0  0
   88.4621   22.9258  168.8802 C   0  0  0  0  0  0  0  0  0  0  0  0
   87.0927   22.2567  169.0051 C   0  0  0  0  0  0  0  0  0  0  0  0
   87.1303   20.8470  169.6028 C   0  0  0  0  0  0  0  0  0  0  0  0
   86.7969   19.7252  168.6130 C   0  0  0  0  0  0  0  0  0  0  0  0
   86.8800   18.3310  169.2456 C   0  0  0  0  0  0  0  0  0  0  0  0
   86.5519   17.2405  168.2240 C   0  0  0  0  0  0  0  0  0  0  0  0
   87.0483   15.8415  168.6026 C   0  0  0  0  0  0  0  0  0  0  0  0
   86.8887   15.4446  170.0743 C   0  0  0  0  0  0  0  0  0  0  0  0
   85.6117   14.6588  170.3754 C   0  0  0  0  0  0  0  0  0  0  0  0
   85.5988   14.0405  171.7787 C   0  0  0  0  0  0  0  0  0  0  0  0
   84.3417   13.2426  172.1450 C   0  0  0  0  0  0  0  0  0  0  0  0
   83.0530   14.0584  172.2888 C   0  0  0  0  0  0  0  0  0  0  0  0
   81.8477   13.2193  172.7218 C   0  0  0  0  0  0  0  0  0  0  0  0
   81.7252   13.1717  174.2474 C   0  0  0  0  0  0  0  0  0  0  0  0
   80.5880   14.0400  174.7947 C   0  0  0  0  0  0  0  0  0  0  0  0
   79.2091   13.3844  174.6743 C   0  0  0  0  0  0  0  0  0  0  0  0
   78.1463   14.4055  174.2576 C   0  0  0  0  0  0  0  0  0  0  0  0
   77.8007   15.4089  175.3603 C   0  0  0  0  0  0  0  0  0  0  0  0
   76.6921   14.9351  176.2871 C   0  0  0  0  0  0  0  0  0  0  0  0
  1  6  1  0
  1 27  1  6
  1 30  1  0
  3  2  1  1
  2 31  1  0
  3  4  1  0
 30  3  1  0
  5  4  1  0
  4 32  1  6
  6  5  1  0
  5 29  1  1
  6 28  1  6
  8  7  1  0
  9  8  1  0
 10  9  1  0
 11 10  1  0
 12 11  1  0
 13 12  1  0
 14 13  1  0
 15 14  1  0
 16 15  1  0
 17 16  1  0
 18 17  1  0
 19 18  1  0
 20 19  1  0
 21 20  1  0
 21 22  1  1
 23 21  1  0
 23 24  1  6
 25 23  1  0
 25 26  1  6
 25 44  1  0
 26 27  1  0
 32 33  1  0
 33 34  1  0
 34 35  2  0
 34 43  1  0
 35 36  1  0
 36 37  2  0
 37 38  1  0
 37 42  1  0
 38 39  1  6
 38 40  1  0
 38 41  1  0
 42 43  2  0
 44 45  1  0
 45 46  2  0
 45 47  1  0
 47 48  1  0
 48 49  1  0
 49 50  1  0
 50 51  1  0
 51 52  1  0
 52 53  1  0
 53 54  1  0
 54 55  1  0
 55 56  1  0
 56 57  1  0
 57 58  1  0
 58 59  1  0
 59 60  1  0
 60 61  1  0
 61 62  1  0
 62 63  1  0
 63 64  1  0
 64 65  1  0
 65 66  1  0
 66 67  1  0
 67 68  1  0
 68 69  1  0
 69 70  1  0
 70 71  1  0
M  END
$$$$
