
     RDKit          3D

 71 72  0  0  0  0  0  0  0  0999 V2000
   93.6878   30.0347  167.7205 C   0  0  1  0  0  0  0  0  0  0  0  0
   91.8174   31.8738  165.8454 C   0  0  0  0  0  0  0  0  0  0  0  0
   93.2738   31.9442  166.3265 C   0  0  2  0  0  0  0  0  0  0  0  0
   94.3063   31.3043  165.3509 C   0  0  1  0  0  0  0  0  0  0  0  0
   95.5190   30.9041  166.2008 C   0  0  1  0  0  0  0  0  0  0  0  0
   95.1287   29.8060  167.1938 C   0  0  1  0  0  0  0  0  0  0  0  0
   84.2810   14.9374  178.0257 C   0  0  0  0  0  0  0  0  0  0  0  0
   84.3828   16.2917  177.3408 C   0  0  0  0  0  0  0  0  0  0  0  0
   84.7798   16.2056  175.8649 C   0  0  0  0  0  0  0  0  0  0  0  0
   84.9535   17.5454  175.1439 C   0  0  0  0  0  0  0  0  0  0  0  0
   85.5942   17.4195  173.7599 C   0  0  0  0  0  0  0  0  0  0  0  0
   86.1629   18.7619  173.2973 C   0  0  0  0  0  0  0  0  0  0  0  0
   85.8487   19.0341  171.8241 C   0  0  0  0  0  0  0  0  0  0  0  0
   87.1348   19.2945  171.0392 C   0  0  0  0  0  0  0  0  0  0  0  0
   87.7935   20.6394  171.3554 C   0  0  0  0  0  0  0  0  0  0  0  0
   87.2597   21.7952  170.5027 C   0  0  0  0  0  0  0  0  0  0  0  0
   87.5478   23.1726  171.1149 C   0  0  0  0  0  0  0  0  0  0  0  0
   88.1071   24.1581  170.0883 C   0  0  0  0  0  0  0  0  0  0  0  0
   88.3781   25.5403  170.6897 C   0  0  0  0  0  0  0  0  0  0  0  0
   89.8639   25.8801  170.5427 C   0  0  0  0  0  0  0  0  0  0  0  0
   90.2302   26.4612  169.1767 C   0  0  1  0  0  0  0  0  0  0  0  0
   89.1792   26.1998  168.2453 O   0  0  0  0  0  0  0  0  0  0  0  0
   90.5521   27.9784  169.2282 C   0  0  1  0  0  0  0  0  0  0  0  0
   89.3837   28.6873  169.6873 O   0  0  0  0  0  0  0  0  0  0  0  0
   91.7777   28.3819  170.0916 C   0  0  2  0  0  0  0  0  0  0  0  0
   92.3992   29.7471  169.7285 C   0  0  0  0  0  0  0  0  0  0  0  0
   93.6651   29.5783  169.0756 O   0  0  0  0  0  0  0  0  0  0  0  0
   96.1163   29.8240  168.2486 O   0  0  0  0  0  0  0  0  0  0  0  0
   96.6446   30.4816  165.4235 O   0  0  0  0  0  0  0  0  0  0  0  0
   93.3558   31.4226  167.6714 O   0  0  0  0  0  0  0  0  0  0  0  0
   91.2325   33.1597  165.6965 O   0  0  0  0  0  0  0  0  0  0  0  0
   93.6758   30.1810  164.6993 O   0  0  0  0  0  0  0  0  0  0  0  0
   93.8860   30.0790  163.2872 C   0  0  0  0  0  0  0  0  0  0  0  0
   93.0181   31.0233  162.4966 C   0  0  0  0  0  0  0  0  0  0  0  0
   91.6751   30.7126  162.2554 C   0  0  0  0  0  0  0  0  0  0  0  0
   90.8648   31.5666  161.5003 C   0  0  0  0  0  0  0  0  0  0  0  0
   91.3671   32.7604  160.9593 C   0  0  0  0  0  0  0  0  0  0  0  0
   90.4974   33.7269  160.1359 C   0  0  2  0  0  0  0  0  0  0  0  0
   89.1913   33.0943  159.6056 C   0  0  0  0  0  0  0  0  0  0  0  0
   91.2885   34.2329  158.9104 C   0  0  0  0  0  0  0  0  0  0  0  0
   90.0999   34.9301  161.0179 C   0  0  0  0  0  0  0  0  0  0  0  0
   92.7212   33.0586  161.2081 C   0  0  0  0  0  0  0  0  0  0  0  0
   93.5345   32.2062  161.9640 C   0  0  0  0  0  0  0  0  0  0  0  0
   92.8039   27.3230  170.0114 N   0  0  0  0  0  0  0  0  0  0  0  0
   93.1350   26.5865  171.1281 C   0  0  0  0  0  0  0  0  0  0  0  0
   92.5824   26.7400  172.2122 O   0  0  0  0  0  0  0  0  0  0  0  0
   94.2157   25.5513  170.8843 C   0  0  0  0  0  0  0  0  0  0  0  0
   94.0600   24.3350  171.7984 C   0  0  0  0  0  0  0  0  0  0  0  0
   92.9022   23.4386  171.3458 C   0  0  0  0  0  0  0  0  0  0  0  0
   92.8011   22.1337  172.1381 C   0  0  0  0  0  0  0  0  0  0  0  0
   91.6307   22.1146  173.1260 C   0  0  0  0  0  0  0  0  0  0  0  0
   91.8547   21.0589  174.2121 C   0  0  0  0  0  0  0  0  0  0  0  0
   90.7095   21.0310  175.2273 C   0  0  0  0  0  0  0  0  0  0  0  0
   91.1286   20.2823  176.4932 C   0  0  0  0  0  0  0  0  0  0  0  0
   89.9607   19.8138  177.3662 C   0  0  0  0  0  0  0  0  0  0  0  0
   89.1549   18.6480  176.7819 C   0  0  0  0  0  0  0  0  0  0  0  0
   87.8984   18.3262  177.5994 C   0  0  0  0  0  0  0  0  0  0  0  0
   88.2568   17.9535  179.0393 C   0  0  0  0  0  0  0  0  0  0  0  0
   87.0521   17.7108  179.9541 C   0  0  0  0  0  0  0  0  0  0  0  0
   86.6266   16.2497  180.1358 C   0  0  0  0  0  0  0  0  0  0  0  0
   85.4041   15.8467  179.3099 C   0  0  0  0  0  0  0  0  0  0  0  0
   85.6735   14.6681  178.3664 C   0  0  0  0  0  0  0  0  0  0  0  0
   84.4958   14.2367  177.4843 C   0  0  0  0  0  0  0  0  0  0  0  0
   83.8827   15.3335  176.6082 C   0  0  0  0  0  0  0  0  0  0  0  0
   83.2910   14.8054  175.2985 C   0  0  0  0  0  0  0  0  0  0  0  0
   82.1985   13.7657  175.5636 C   0  0  0  0  0  0  0  0  0  0  0  0
   81.8649   12.9068  174.3397 C   0  0  0  0  0  0  0  0  0  0  0  0
   81.1282   11.6101  174.6883 C   0  0  0  0  0  0  0  0  0  0  0  0
   81.4228   10.5138  173.6602 C   0  0  0  0  0  0  0  0  0  0  0  0
   80.6673    9.2100  173.9272 C   0  0  0  0  0  0  0  0  0  0  0  0
   80.9531    8.1218  172.9041 C   0  0  0  0  0  0  0  0  0  0  0  0
  1  6  1  0
  1 27  1  1
  1 30  1  0
  3  2  1  6
  2 31  1  0
  3  4  1  0
 30  3  1  0
  5  4  1  0
  4 32  1  1
  6  5  1  0
  5 29  1  6
  6 28  1  1
  8  7  1  0
  9  8  1  0
 10  9  1  0
 11 10  1  0
 12 11  1  0
 13 12  1  0
 14 13  1  0
 15 14  1  0
 16 15  1  0
 17 16  1  0
 18 17  1  0
 19 18  1  0
 20 19  1  0
 21 20  1  0
 21 22  1  6
 23 21  1  0
 23 24  1  1
 25 23  1  0
 25 26  1  6
 25 44  1  0
 26 27  1  0
 32 33  1  0
 33 34  1  0
 34 35  2  0
 34 43  1  0
 35 36  1  0
 36 37  2  0
 37 38  1  0
 37 42  1  0
 38 39  1  6
 38 40  1  0
 38 41  1  0
 42 43  2  0
 44 45  1  0
 45 46  2  0
 45 47  1  0
 47 48  1  0
 48 49  1  0
 49 50  1  0
 50 51  1  0
 51 52  1  0
 52 53  1  0
 53 54  1  0
 54 55  1  0
 55 56  1  0
 56 57  1  0
 57 58  1  0
 58 59  1  0
 59 60  1  0
 60 61  1  0
 61 62  1  0
 62 63  1  0
 63 64  1  0
 64 65  1  0
 65 66  1  0
 66 67  1  0
 67 68  1  0
 68 69  1  0
 69 70  1  0
 70 71  1  0
M  END
$$$$
