
     RDKit          3D

 71 72  0  0  0  0  0  0  0  0999 V2000
   97.2741   28.3819  171.4853 C   0  0  1  0  0  0  0  0  0  0  0  0
   98.3410   25.6216  172.7654 C   0  0  0  0  0  0  0  0  0  0  0  0
   98.1312   26.1449  171.3372 C   0  0  2  0  0  0  0  0  0  0  0  0
   99.3927   26.7997  170.6992 C   0  0  1  0  0  0  0  0  0  0  0  0
   98.8840   27.7715  169.6268 C   0  0  1  0  0  0  0  0  0  0  0  0
   98.0923   28.9089  170.2775 C   0  0  1  0  0  0  0  0  0  0  0  0
   80.9659   27.6440  165.6663 C   0  0  0  0  0  0  0  0  0  0  0  0
   82.1864   27.9129  164.7993 C   0  0  0  0  0  0  0  0  0  0  0  0
   83.1121   26.7029  164.6493 C   0  0  0  0  0  0  0  0  0  0  0  0
   84.4056   26.9483  163.8673 C   0  0  0  0  0  0  0  0  0  0  0  0
   84.8534   25.7490  163.0290 C   0  0  0  0  0  0  0  0  0  0  0  0
   86.1414   26.0657  162.2672 C   0  0  0  0  0  0  0  0  0  0  0  0
   87.3007   26.3773  163.2169 C   0  0  0  0  0  0  0  0  0  0  0  0
   87.8898   27.7551  162.9124 C   0  0  0  0  0  0  0  0  0  0  0  0
   89.3862   27.8705  163.2124 C   0  0  0  0  0  0  0  0  0  0  0  0
   89.7433   27.5457  164.6666 C   0  0  0  0  0  0  0  0  0  0  0  0
   90.5609   28.6540  165.3434 C   0  0  0  0  0  0  0  0  0  0  0  0
   90.9183   28.3102  166.7898 C   0  0  0  0  0  0  0  0  0  0  0  0
   91.7329   29.4141  167.4706 C   0  0  0  0  0  0  0  0  0  0  0  0
   93.1559   28.9130  167.7320 C   0  0  0  0  0  0  0  0  0  0  0  0
   93.2769   28.0199  168.9671 C   0  0  1  0  0  0  0  0  0  0  0  0
   94.3156   27.0600  168.7668 O   0  0  0  0  0  0  0  0  0  0  0  0
   93.5154   28.8205  170.2749 C   0  0  1  0  0  0  0  0  0  0  0  0
   92.3374   29.5990  170.5661 O   0  0  0  0  0  0  0  0  0  0  0  0
   93.9051   27.9811  171.5215 C   0  0  2  0  0  0  0  0  0  0  0  0
   95.0479   28.5796  172.3687 C   0  0  0  0  0  0  0  0  0  0  0  0
   96.0660   29.1458  171.5318 O   0  0  0  0  0  0  0  0  0  0  0  0
   97.2570   29.4818  169.2468 O   0  0  0  0  0  0  0  0  0  0  0  0
   99.9261   28.3097  168.8057 O   0  0  0  0  0  0  0  0  0  0  0  0
   96.9660   26.9987  171.3104 O   0  0  0  0  0  0  0  0  0  0  0  0
   98.2143   26.6452  173.7422 O   0  0  0  0  0  0  0  0  0  0  0  0
  100.1409   27.4533  171.7466 O   0  0  0  0  0  0  0  0  0  0  0  0
  101.5571   27.5245  171.5518 C   0  0  0  0  0  0  0  0  0  0  0  0
  102.2158   26.1694  171.5451 C   0  0  0  0  0  0  0  0  0  0  0  0
  101.8445   25.2000  172.4834 C   0  0  0  0  0  0  0  0  0  0  0  0
  102.4663   23.9473  172.5061 C   0  0  0  0  0  0  0  0  0  0  0  0
  103.4807   23.6191  171.5932 C   0  0  0  0  0  0  0  0  0  0  0  0
  104.1742   22.2453  171.5843 C   0  0  2  0  0  0  0  0  0  0  0  0
  105.1677   22.0397  172.7497 C   0  0  0  0  0  0  0  0  0  0  0  0
  104.9678   22.0646  170.2724 C   0  0  0  0  0  0  0  0  0  0  0  0
  103.1059   21.1358  171.6905 C   0  0  0  0  0  0  0  0  0  0  0  0
  103.8456   24.6058  170.6563 C   0  0  0  0  0  0  0  0  0  0  0  0
  103.2247   25.8601  170.6307 C   0  0  0  0  0  0  0  0  0  0  0  0
   94.2546   26.6098  171.0995 N   0  0  0  0  0  0  0  0  0  0  0  0
   93.5431   25.5304  171.5768 C   0  0  0  0  0  0  0  0  0  0  0  0
   92.6591   25.6386  172.4201 O   0  0  0  0  0  0  0  0  0  0  0  0
   93.9291   24.2092  170.9410 C   0  0  0  0  0  0  0  0  0  0  0  0
   92.7580   23.2261  170.9078 C   0  0  0  0  0  0  0  0  0  0  0  0
   92.4651   22.7516  169.4802 C   0  0  0  0  0  0  0  0  0  0  0  0
   91.0798   23.1625  168.9775 C   0  0  0  0  0  0  0  0  0  0  0  0
   90.4638   22.1510  168.0061 C   0  0  0  0  0  0  0  0  0  0  0  0
   89.2847   21.4226  168.6568 C   0  0  0  0  0  0  0  0  0  0  0  0
   87.9436   22.0609  168.2868 C   0  0  0  0  0  0  0  0  0  0  0  0
   86.9007   20.9856  167.9792 C   0  0  0  0  0  0  0  0  0  0  0  0
   85.5206   21.5330  167.6032 C   0  0  0  0  0  0  0  0  0  0  0  0
   84.3502   20.6057  167.9495 C   0  0  0  0  0  0  0  0  0  0  0  0
   84.3360   20.1936  169.4262 C   0  0  0  0  0  0  0  0  0  0  0  0
   83.1118   19.3342  169.7480 C   0  0  0  0  0  0  0  0  0  0  0  0
   81.7840   20.0980  169.7687 C   0  0  0  0  0  0  0  0  0  0  0  0
   80.6057   19.3844  170.4405 C   0  0  0  0  0  0  0  0  0  0  0  0
   80.9044   18.8759  171.8516 C   0  0  0  0  0  0  0  0  0  0  0  0
   79.7449   18.0831  172.4669 C   0  0  0  0  0  0  0  0  0  0  0  0
   79.9783   17.5526  173.8864 C   0  0  0  0  0  0  0  0  0  0  0  0
   80.1053   18.6152  174.9825 C   0  0  0  0  0  0  0  0  0  0  0  0
   78.9844   18.5513  176.0236 C   0  0  0  0  0  0  0  0  0  0  0  0
   78.9086   19.8469  176.8362 C   0  0  0  0  0  0  0  0  0  0  0  0
   80.2569   20.2791  177.4212 C   0  0  0  0  0  0  0  0  0  0  0  0
   80.1460   21.4405  178.4135 C   0  0  0  0  0  0  0  0  0  0  0  0
   81.4256   21.5823  179.2432 C   0  0  0  0  0  0  0  0  0  0  0  0
   81.3113   22.6154  180.3665 C   0  0  0  0  0  0  0  0  0  0  0  0
   82.6506   23.0041  180.9728 C   0  0  0  0  0  0  0  0  0  0  0  0
  1  6  1  0
  1 27  1  6
  1 30  1  0
  3  2  1  1
  2 31  1  0
  3  4  1  0
 30  3  1  0
  5  4  1  0
  4 32  1  1
  6  5  1  0
  5 29  1  1
  6 28  1  6
  8  7  1  0
  9  8  1  0
 10  9  1  0
 11 10  1  0
 12 11  1  0
 13 12  1  0
 14 13  1  0
 15 14  1  0
 16 15  1  0
 17 16  1  0
 18 17  1  0
 19 18  1  0
 20 19  1  0
 21 20  1  0
 21 22  1  6
 23 21  1  0
 23 24  1  1
 25 23  1  0
 25 26  1  6
 25 44  1  0
 26 27  1  0
 32 33  1  0
 33 34  1  0
 34 35  2  0
 34 43  1  0
 35 36  1  0
 36 37  2  0
 37 38  1  0
 37 42  1  0
 38 39  1  1
 38 40  1  0
 38 41  1  0
 42 43  2  0
 44 45  1  0
 45 46  2  0
 45 47  1  0
 47 48  1  0
 48 49  1  0
 49 50  1  0
 50 51  1  0
 51 52  1  0
 52 53  1  0
 53 54  1  0
 54 55  1  0
 55 56  1  0
 56 57  1  0
 57 58  1  0
 58 59  1  0
 59 60  1  0
 60 61  1  0
 61 62  1  0
 62 63  1  0
 63 64  1  0
 64 65  1  0
 65 66  1  0
 66 67  1  0
 67 68  1  0
 68 69  1  0
 69 70  1  0
 70 71  1  0
M  END
$$$$
