
     RDKit          3D

 71 72  0  0  0  0  0  0  0  0999 V2000
   92.5057   26.9477  171.5734 C   0  0  1  0  0  0  0  0  0  0  0  0
   95.6923   26.7455  172.0227 C   0  0  0  0  0  0  0  0  0  0  0  0
   94.7693   26.7667  170.7958 C   0  0  2  0  0  0  0  0  0  0  0  0
   94.5442   28.1813  170.1833 C   0  0  1  0  0  0  0  0  0  0  0  0
   93.2023   28.1269  169.4419 C   0  0  1  0  0  0  0  0  0  0  0  0
   92.0590   27.9021  170.4352 C   0  0  1  0  0  0  0  0  0  0  0  0
   89.4399   11.8699  179.7897 C   0  0  0  0  0  0  0  0  0  0  0  0
   88.3684   12.2231  178.7696 C   0  0  0  0  0  0  0  0  0  0  0  0
   88.9097   12.4117  177.3502 C   0  0  0  0  0  0  0  0  0  0  0  0
   87.8552   12.6047  176.2566 C   0  0  0  0  0  0  0  0  0  0  0  0
   88.4178   13.1822  174.9560 C   0  0  0  0  0  0  0  0  0  0  0  0
   87.3183   13.3283  173.9028 C   0  0  0  0  0  0  0  0  0  0  0  0
   87.8639   13.8871  172.5863 C   0  0  0  0  0  0  0  0  0  0  0  0
   86.9407   14.9774  172.0413 C   0  0  0  0  0  0  0  0  0  0  0  0
   86.7939   16.1868  172.9677 C   0  0  0  0  0  0  0  0  0  0  0  0
   87.0990   17.5219  172.2805 C   0  0  0  0  0  0  0  0  0  0  0  0
   88.6028   17.8059  172.1669 C   0  0  0  0  0  0  0  0  0  0  0  0
   88.8895   19.1706  171.5397 C   0  0  0  0  0  0  0  0  0  0  0  0
   90.3869   19.4878  171.4852 C   0  0  0  0  0  0  0  0  0  0  0  0
   90.5977   20.8483  170.8151 C   0  0  0  0  0  0  0  0  0  0  0  0
   92.0434   21.3434  170.8686 C   0  0  1  0  0  0  0  0  0  0  0  0
   92.4686   21.7284  169.5604 O   0  0  0  0  0  0  0  0  0  0  0  0
   92.2510   22.5051  171.8764 C   0  0  1  0  0  0  0  0  0  0  0  0
   93.6313   22.9188  171.8326 O   0  0  0  0  0  0  0  0  0  0  0  0
   91.3314   23.7411  171.6842 C   0  0  2  0  0  0  0  0  0  0  0  0
   91.6671   24.9408  172.5952 C   0  0  0  0  0  0  0  0  0  0  0  0
   91.3570   26.1817  171.9461 O   0  0  0  0  0  0  0  0  0  0  0  0
   90.9426   27.3823  169.6790 O   0  0  0  0  0  0  0  0  0  0  0  0
   92.9405   29.2917  168.6519 O   0  0  0  0  0  0  0  0  0  0  0  0
   93.5400   26.0771  171.1139 O   0  0  0  0  0  0  0  0  0  0  0  0
   96.8717   27.5128  171.8274 O   0  0  0  0  0  0  0  0  0  0  0  0
   94.5592   29.1460  171.2572 O   0  0  0  0  0  0  0  0  0  0  0  0
   95.1043   30.4299  170.9362 C   0  0  0  0  0  0  0  0  0  0  0  0
   95.0552   30.7346  169.4614 C   0  0  0  0  0  0  0  0  0  0  0  0
   96.1374   30.4070  168.6370 C   0  0  0  0  0  0  0  0  0  0  0  0
   96.1167   30.7083  167.2713 C   0  0  0  0  0  0  0  0  0  0  0  0
   95.0152   31.3475  166.6812 C   0  0  0  0  0  0  0  0  0  0  0  0
   94.9572   31.6800  165.1797 C   0  0  2  0  0  0  0  0  0  0  0  0
   94.9670   33.1947  164.8747 C   0  0  0  0  0  0  0  0  0  0  0  0
   93.6671   31.0995  164.5615 C   0  0  0  0  0  0  0  0  0  0  0  0
   96.1832   31.0615  164.4743 C   0  0  0  0  0  0  0  0  0  0  0  0
   93.9345   31.6735  167.5241 C   0  0  0  0  0  0  0  0  0  0  0  0
   93.9519   31.3727  168.8910 C   0  0  0  0  0  0  0  0  0  0  0  0
   89.9235   23.3394  171.8770 N   0  0  0  0  0  0  0  0  0  0  0  0
   88.9116   24.0074  171.2220 C   0  0  0  0  0  0  0  0  0  0  0  0
   89.1211   24.9372  170.4501 O   0  0  0  0  0  0  0  0  0  0  0  0
   87.5261   23.4664  171.5162 C   0  0  0  0  0  0  0  0  0  0  0  0
   86.4421   24.2156  170.7397 C   0  0  0  0  0  0  0  0  0  0  0  0
   86.8307   24.3961  169.2681 C   0  0  0  0  0  0  0  0  0  0  0  0
   85.7563   25.1042  168.4405 C   0  0  0  0  0  0  0  0  0  0  0  0
   86.2234   25.4701  167.0283 C   0  0  0  0  0  0  0  0  0  0  0  0
   85.2589   26.4662  166.3789 C   0  0  0  0  0  0  0  0  0  0  0  0
   85.7353   26.9017  164.9910 C   0  0  0  0  0  0  0  0  0  0  0  0
   85.4351   25.8193  163.9532 C   0  0  0  0  0  0  0  0  0  0  0  0
   85.2201   26.3487  162.5322 C   0  0  0  0  0  0  0  0  0  0  0  0
   86.1127   25.7005  161.4679 C   0  0  0  0  0  0  0  0  0  0  0  0
   86.3393   26.6058  160.2515 C   0  0  0  0  0  0  0  0  0  0  0  0
   85.1012   26.6446  159.3536 C   0  0  0  0  0  0  0  0  0  0  0  0
   84.0784   27.7234  159.7239 C   0  0  0  0  0  0  0  0  0  0  0  0
   82.8890   27.8810  158.7703 C   0  0  0  0  0  0  0  0  0  0  0  0
   81.9155   28.9932  159.1627 C   0  0  0  0  0  0  0  0  0  0  0  0
   82.2385   30.3399  158.5042 C   0  0  0  0  0  0  0  0  0  0  0  0
   81.5248   31.5609  159.0966 C   0  0  0  0  0  0  0  0  0  0  0  0
   81.6204   32.8514  158.2767 C   0  0  0  0  0  0  0  0  0  0  0  0
   80.4769   33.8319  158.5511 C   0  0  0  0  0  0  0  0  0  0  0  0
   80.9975   35.1293  159.1760 C   0  0  0  0  0  0  0  0  0  0  0  0
   82.2571   34.9337  160.0256 C   0  0  0  0  0  0  0  0  0  0  0  0
   82.1930   35.6424  161.3819 C   0  0  0  0  0  0  0  0  0  0  0  0
   82.5083   37.1345  161.2409 C   0  0  0  0  0  0  0  0  0  0  0  0
   82.4713   37.8927  162.5697 C   0  0  0  0  0  0  0  0  0  0  0  0
   82.9113   39.3437  162.4538 C   0  0  0  0  0  0  0  0  0  0  0  0
  1  6  1  0
  1 27  1  6
  1 30  1  0
  3  2  1  1
  2 31  1  0
  3  4  1  0
 30  3  1  0
  5  4  1  0
  4 32  1  1
  6  5  1  0
  5 29  1  1
  6 28  1  6
  8  7  1  0
  9  8  1  0
 10  9  1  0
 11 10  1  0
 12 11  1  0
 13 12  1  0
 14 13  1  0
 15 14  1  0
 16 15  1  0
 17 16  1  0
 18 17  1  0
 19 18  1  0
 20 19  1  0
 21 20  1  0
 21 22  1  6
 23 21  1  0
 23 24  1  6
 25 23  1  0
 25 26  1  1
 25 44  1  0
 26 27  1  0
 32 33  1  0
 33 34  1  0
 34 35  2  0
 34 43  1  0
 35 36  1  0
 36 37  2  0
 37 38  1  0
 37 42  1  0
 38 39  1  1
 38 40  1  0
 38 41  1  0
 42 43  2  0
 44 45  1  0
 45 46  2  0
 45 47  1  0
 47 48  1  0
 48 49  1  0
 49 50  1  0
 50 51  1  0
 51 52  1  0
 52 53  1  0
 53 54  1  0
 54 55  1  0
 55 56  1  0
 56 57  1  0
 57 58  1  0
 58 59  1  0
 59 60  1  0
 60 61  1  0
 61 62  1  0
 62 63  1  0
 63 64  1  0
 64 65  1  0
 65 66  1  0
 66 67  1  0
 67 68  1  0
 68 69  1  0
 69 70  1  0
 70 71  1  0
M  END
$$$$
