
     RDKit          3D

 71 72  0  0  0  0  0  0  0  0999 V2000
   93.7295   27.8714  169.9594 C   0  0  1  0  0  0  0  0  0  0  0  0
   91.7622   30.4234  170.0780 C   0  0  0  0  0  0  0  0  0  0  0  0
   93.2848   30.2258  170.1004 C   0  0  2  0  0  0  0  0  0  0  0  0
   93.9666   30.3154  168.7024 C   0  0  1  0  0  0  0  0  0  0  0  0
   95.2714   29.5149  168.8018 C   0  0  1  0  0  0  0  0  0  0  0  0
   94.9653   28.0331  169.0362 C   0  0  1  0  0  0  0  0  0  0  0  0
   83.7711   17.9715  173.5766 C   0  0  0  0  0  0  0  0  0  0  0  0
   84.7753   16.9961  174.1713 C   0  0  0  0  0  0  0  0  0  0  0  0
   85.6585   17.6109  175.2600 C   0  0  0  0  0  0  0  0  0  0  0  0
   86.6377   16.6514  175.9423 C   0  0  0  0  0  0  0  0  0  0  0  0
   87.9313   17.3230  176.4086 C   0  0  0  0  0  0  0  0  0  0  0  0
   89.1402   16.7570  175.6619 C   0  0  0  0  0  0  0  0  0  0  0  0
   90.4182   16.8477  176.4995 C   0  0  0  0  0  0  0  0  0  0  0  0
   91.0402   18.2396  176.3826 C   0  0  0  0  0  0  0  0  0  0  0  0
   92.2979   18.4309  177.2336 C   0  0  0  0  0  0  0  0  0  0  0  0
   93.0508   19.7294  176.9254 C   0  0  0  0  0  0  0  0  0  0  0  0
   92.5122   20.4525  175.6837 C   0  0  0  0  0  0  0  0  0  0  0  0
   93.1429   21.8329  175.4971 C   0  0  0  0  0  0  0  0  0  0  0  0
   94.6140   21.7535  175.0784 C   0  0  0  0  0  0  0  0  0  0  0  0
   94.8620   22.6980  173.8991 C   0  0  0  0  0  0  0  0  0  0  0  0
   94.2226   24.0764  174.0693 C   0  0  1  0  0  0  0  0  0  0  0  0
   94.8820   24.7862  175.1189 O   0  0  0  0  0  0  0  0  0  0  0  0
   94.2198   24.9109  172.7609 C   0  0  1  0  0  0  0  0  0  0  0  0
   95.4189   24.6153  172.0172 O   0  0  0  0  0  0  0  0  0  0  0  0
   92.9806   24.7281  171.8436 C   0  0  2  0  0  0  0  0  0  0  0  0
   92.8830   25.7422  170.6843 C   0  0  0  0  0  0  0  0  0  0  0  0
   93.9511   26.6977  170.7458 O   0  0  0  0  0  0  0  0  0  0  0  0
   96.1592   27.4416  169.5955 O   0  0  0  0  0  0  0  0  0  0  0  0
   96.1189   29.6631  167.6575 O   0  0  0  0  0  0  0  0  0  0  0  0
   93.5956   29.0081  170.8132 O   0  0  0  0  0  0  0  0  0  0  0  0
   91.3401   31.2655  169.0148 O   0  0  0  0  0  0  0  0  0  0  0  0
   93.0515   29.7870  167.7189 O   0  0  0  0  0  0  0  0  0  0  0  0
   93.4302   29.9702  166.3509 C   0  0  0  0  0  0  0  0  0  0  0  0
   92.2692   29.8389  165.3995 C   0  0  0  0  0  0  0  0  0  0  0  0
   90.9804   29.5976  165.8884 C   0  0  0  0  0  0  0  0  0  0  0  0
   89.8979   29.4467  165.0157 C   0  0  0  0  0  0  0  0  0  0  0  0
   90.0644   29.5311  163.6245 C   0  0  0  0  0  0  0  0  0  0  0  0
   88.8912   29.3829  162.6395 C   0  0  2  0  0  0  0  0  0  0  0  0
   88.3395   30.7288  162.1185 C   0  0  0  0  0  0  0  0  0  0  0  0
   87.7201   28.6447  163.3229 C   0  0  0  0  0  0  0  0  0  0  0  0
   89.3578   28.5716  161.4117 C   0  0  0  0  0  0  0  0  0  0  0  0
   91.3677   29.7718  163.1471 C   0  0  0  0  0  0  0  0  0  0  0  0
   92.4529   29.9239  164.0179 C   0  0  0  0  0  0  0  0  0  0  0  0
   91.7527   24.7781  172.6625 N   0  0  0  0  0  0  0  0  0  0  0  0
   90.6199   24.1026  172.2630 C   0  0  0  0  0  0  0  0  0  0  0  0
   89.4875   24.4841  172.5394 O   0  0  0  0  0  0  0  0  0  0  0  0
   90.9015   22.8701  171.4260 C   0  0  0  0  0  0  0  0  0  0  0  0
   89.7545   22.5571  170.4640 C   0  0  0  0  0  0  0  0  0  0  0  0
   88.5265   22.0247  171.2107 C   0  0  0  0  0  0  0  0  0  0  0  0
   87.3144   21.8042  170.3035 C   0  0  0  0  0  0  0  0  0  0  0  0
   86.9446   23.0394  169.4766 C   0  0  0  0  0  0  0  0  0  0  0  0
   85.7590   22.7402  168.5551 C   0  0  0  0  0  0  0  0  0  0  0  0
   85.4508   23.9129  167.6208 C   0  0  0  0  0  0  0  0  0  0  0  0
   86.0642   23.6783  166.2398 C   0  0  0  0  0  0  0  0  0  0  0  0
   85.0397   23.4971  165.1158 C   0  0  0  0  0  0  0  0  0  0  0  0
   85.6478   23.2130  163.7378 C   0  0  0  0  0  0  0  0  0  0  0  0
   86.6812   24.2643  163.3165 C   0  0  0  0  0  0  0  0  0  0  0  0
   86.0832   25.2573  162.3180 C   0  0  0  0  0  0  0  0  0  0  0  0
   87.0406   25.6989  161.2065 C   0  0  0  0  0  0  0  0  0  0  0  0
   86.4886   26.7220  160.2078 C   0  0  0  0  0  0  0  0  0  0  0  0
   86.7985   28.1762  160.5661 C   0  0  0  0  0  0  0  0  0  0  0  0
   86.6599   29.1347  159.3772 C   0  0  0  0  0  0  0  0  0  0  0  0
   85.8760   28.5969  158.1741 C   0  0  0  0  0  0  0  0  0  0  0  0
   84.3741   28.8985  158.1685 C   0  0  0  0  0  0  0  0  0  0  0  0
   83.9784   29.9964  157.1773 C   0  0  0  0  0  0  0  0  0  0  0  0
   82.8935   30.9054  157.7614 C   0  0  0  0  0  0  0  0  0  0  0  0
   83.2493   32.3943  157.7027 C   0  0  0  0  0  0  0  0  0  0  0  0
   82.1379   33.3072  158.2290 C   0  0  0  0  0  0  0  0  0  0  0  0
   82.5865   34.7717  158.2434 C   0  0  0  0  0  0  0  0  0  0  0  0
   81.6057   35.7016  158.9612 C   0  0  0  0  0  0  0  0  0  0  0  0
   82.0340   37.1607  158.9514 C   0  0  0  0  0  0  0  0  0  0  0  0
  1  6  1  0
  1 27  1  1
  1 30  1  0
  3  2  1  6
  2 31  1  0
  3  4  1  0
 30  3  1  0
  5  4  1  0
  4 32  1  6
  6  5  1  0
  5 29  1  6
  6 28  1  1
  8  7  1  0
  9  8  1  0
 10  9  1  0
 11 10  1  0
 12 11  1  0
 13 12  1  0
 14 13  1  0
 15 14  1  0
 16 15  1  0
 17 16  1  0
 18 17  1  0
 19 18  1  0
 20 19  1  0
 21 20  1  0
 21 22  1  1
 23 21  1  0
 23 24  1  6
 25 23  1  0
 25 26  1  6
 25 44  1  0
 26 27  1  0
 32 33  1  0
 33 34  1  0
 34 35  2  0
 34 43  1  0
 35 36  1  0
 36 37  2  0
 37 38  1  0
 37 42  1  0
 38 39  1  6
 38 40  1  0
 38 41  1  0
 42 43  2  0
 44 45  1  0
 45 46  2  0
 45 47  1  0
 47 48  1  0
 48 49  1  0
 49 50  1  0
 50 51  1  0
 51 52  1  0
 52 53  1  0
 53 54  1  0
 54 55  1  0
 55 56  1  0
 56 57  1  0
 57 58  1  0
 58 59  1  0
 59 60  1  0
 60 61  1  0
 61 62  1  0
 62 63  1  0
 63 64  1  0
 64 65  1  0
 65 66  1  0
 66 67  1  0
 67 68  1  0
 68 69  1  0
 69 70  1  0
 70 71  1  0
M  END
$$$$
