
     RDKit          3D

 36 39  0  0  0  0  0  0  0  0999 V2000
  -54.4061  -14.6050   13.4872 C   0  0  0  0  0  0  0  0  0  0  0  0
  -43.8465  -15.0637   10.0614 O   0  0  0  0  0  0  0  0  0  0  0  0
  -57.0580  -11.0555   13.6361 C   0  0  0  0  0  0  0  0  0  0  0  0
  -45.0475  -14.0362   11.3939 N   0  0  0  0  0  0  0  0  0  0  0  0
  -43.4128  -18.0005    9.6732 Cl  0  0  0  0  0  0  0  0  0  0  0  0
  -48.5268  -18.4757   11.4341 Cl  0  0  0  0  0  0  0  0  0  0  0  0
  -46.2248  -13.6573   11.6155 C   0  0  0  0  0  0  0  0  0  0  0  0
  -47.8396  -11.8929   12.1355 C   0  0  0  0  0  0  0  0  0  0  0  0
  -45.9873  -18.0168   10.6019 C   0  0  0  0  0  0  0  0  0  0  0  0
  -46.1302  -15.3167   10.8639 C   0  0  0  0  0  0  0  0  0  0  0  0
  -51.3851  -11.9393   12.7853 C   0  0  0  0  0  0  0  0  0  0  0  0
  -50.9249  -14.5728   12.3155 C   0  0  0  0  0  0  0  0  0  0  0  0
  -55.9652  -11.8845   13.0727 C   0  0  0  0  0  0  0  0  0  0  0  0
  -54.6107  -11.6987   13.7501 C   0  0  0  0  0  0  0  0  0  0  0  0
  -60.9690  -11.7503   10.9779 C   0  0  0  0  0  0  0  0  0  0  0  0
  -59.3781  -10.3695   13.7236 C   0  0  0  0  0  0  0  0  0  0  0  0
  -58.8165  -12.5493   12.8654 C   0  0  0  0  0  0  0  0  0  0  0  0
  -60.5581  -10.2959   12.7404 C   0  0  0  0  0  0  0  0  0  0  0  0
  -60.3099  -12.6809   13.0611 C   0  0  0  0  0  0  0  0  0  0  0  0
  -49.0744  -11.4887   12.4110 N   0  0  0  0  0  0  0  0  0  0  0  0
  -48.3971  -15.4719   11.6262 N   0  0  0  0  0  0  0  0  0  0  0  0
  -53.2717  -15.0816   12.7404 O   0  0  0  0  0  0  0  0  0  0  0  0
  -53.6793  -12.4377   13.1872 O   0  0  0  0  0  0  0  0  0  0  0  0
  -44.9317  -15.8691   10.3901 C   0  0  0  0  0  0  0  0  0  0  0  0
  -44.8880  -17.2305   10.2690 C   0  0  0  0  0  0  0  0  0  0  0  0
  -47.1443  -17.4436   11.0619 C   0  0  0  0  0  0  0  0  0  0  0  0
  -47.4953  -13.2327   11.8742 C   0  0  0  0  0  0  0  0  0  0  0  0
  -47.2071  -16.0860   11.1914 C   0  0  0  0  0  0  0  0  0  0  0  0
  -52.1968  -14.1758   12.6380 C   0  0  0  0  0  0  0  0  0  0  0  0
  -52.4722  -12.8230   12.8851 C   0  0  0  0  0  0  0  0  0  0  0  0
  -48.5659  -14.0958   11.9289 C   0  0  0  0  0  0  0  0  0  0  0  0
  -50.1281  -12.3507   12.4656 C   0  0  0  0  0  0  0  0  0  0  0  0
  -49.8626  -13.6782   12.2198 C   0  0  0  0  0  0  0  0  0  0  0  0
  -58.3657  -11.2102   13.1131 N   0  0  2  0  0  4  0  0  0  0  0  0
  -61.0385  -11.5985   12.4077 N   0  0  2  0  0  4  0  0  0  0  0  0
  -43.8820  -13.6614   10.2841 C   0  0  0  0  0  0  0  0  0  0  0  0
 22  1  1  0
 24  2  1  0
  2 36  1  0
 13  3  1  0
 34  3  1  1
  7  4  3  0
 25  5  1  0
 26  6  1  0
 27  7  1  0
 20  8  2  0
  8 27  1  0
  9 25  2  0
 26  9  1  0
 10 24  2  0
 28 10  1  0
 30 11  1  0
 11 32  2  0
 29 12  1  0
 12 33  2  0
 14 13  1  0
 23 14  1  0
 35 15  1  6
 16 18  1  0
 34 16  1  0
 17 19  1  0
 34 17  1  0
 18 35  1  0
 19 35  1  0
 32 20  1  0
 21 28  1  0
 31 21  1  0
 29 22  1  0
 30 23  1  0
 24 25  1  0
 28 26  2  0
 27 31  2  0
 29 30  2  0
 31 33  1  0
 32 33  1  0
M  CHG  2  34   1  35   1
M  END
$$$$
