
     RDKit          3D

 36 39  0  0  0  0  0  0  0  0999 V2000
  -52.8358  -15.9593   12.7664 C   0  0  0  0  0  0  0  0  0  0  0  0
  -46.8934  -16.8831    7.7858 O   0  0  0  0  0  0  0  0  0  0  0  0
  -57.0782  -11.0986   13.3309 C   0  0  0  0  0  0  0  0  0  0  0  0
  -44.8980  -13.4475   11.1838 N   0  0  0  0  0  0  0  0  0  0  0  0
  -44.2869  -18.0399    8.6978 Cl  0  0  0  0  0  0  0  0  0  0  0  0
  -45.6052  -15.9105   13.5152 Cl  0  0  0  0  0  0  0  0  0  0  0  0
  -46.0808  -13.0915   11.4140 C   0  0  0  0  0  0  0  0  0  0  0  0
  -47.8184  -11.3737   11.5582 C   0  0  0  0  0  0  0  0  0  0  0  0
  -45.1307  -16.8714   11.0245 C   0  0  0  0  0  0  0  0  0  0  0  0
  -47.4426  -15.9269    9.9554 C   0  0  0  0  0  0  0  0  0  0  0  0
  -51.3089  -11.4974   12.4504 C   0  0  0  0  0  0  0  0  0  0  0  0
  -50.6399  -14.1188   12.6700 C   0  0  0  0  0  0  0  0  0  0  0  0
  -55.8760  -11.9653   13.2788 C   0  0  0  0  0  0  0  0  0  0  0  0
  -54.5489  -11.2128   13.2560 C   0  0  0  0  0  0  0  0  0  0  0  0
  -61.4645  -12.8022   12.4921 C   0  0  0  0  0  0  0  0  0  0  0  0
  -59.0094  -11.6931   14.6644 C   0  0  0  0  0  0  0  0  0  0  0  0
  -58.5023  -12.9602   12.6792 C   0  0  0  0  0  0  0  0  0  0  0  0
  -60.5097  -11.9213   14.4164 C   0  0  0  0  0  0  0  0  0  0  0  0
  -59.5176  -13.8548   13.3534 C   0  0  0  0  0  0  0  0  0  0  0  0
  -49.0690  -11.0000   11.8038 N   0  0  0  0  0  0  0  0  0  0  0  0
  -48.0795  -14.9866   12.0659 N   0  0  0  0  0  0  0  0  0  0  0  0
  -52.9080  -14.6609   13.3833 O   0  0  0  0  0  0  0  0  0  0  0  0
  -53.5268  -12.0319   13.1350 O   0  0  0  0  0  0  0  0  0  0  0  0
  -46.5796  -16.6511    9.1207 C   0  0  0  0  0  0  0  0  0  0  0  0
  -45.4231  -17.1137    9.6854 C   0  0  0  0  0  0  0  0  0  0  0  0
  -45.9975  -16.1597   11.8125 C   0  0  0  0  0  0  0  0  0  0  0  0
  -47.3695  -12.7054   11.6405 C   0  0  0  0  0  0  0  0  0  0  0  0
  -47.1566  -15.6879   11.2669 C   0  0  0  0  0  0  0  0  0  0  0  0
  -51.9245  -13.7420   12.9653 C   0  0  0  0  0  0  0  0  0  0  0  0
  -52.3066  -12.3966   12.8608 C   0  0  0  0  0  0  0  0  0  0  0  0
  -48.3550  -13.5960   12.0010 C   0  0  0  0  0  0  0  0  0  0  0  0
  -50.0378  -11.8884   12.1627 C   0  0  0  0  0  0  0  0  0  0  0  0
  -49.6676  -13.2099   12.2623 C   0  0  0  0  0  0  0  0  0  0  0  0
  -58.3552  -11.7114   13.3698 N   0  0  2  0  0  4  0  0  0  0  0  0
  -60.7380  -13.1296   13.6910 N   0  0  2  0  0  4  0  0  0  0  0  0
  -48.0836  -16.3614    7.2127 C   0  0  0  0  0  0  0  0  0  0  0  0
 22  1  1  0
 24  2  1  0
  2 36  1  0
 13  3  1  0
 34  3  1  1
  7  4  3  0
 25  5  1  0
 26  6  1  0
 27  7  1  0
 20  8  2  0
  8 27  1  0
  9 25  2  0
 26  9  1  0
 10 24  2  0
 28 10  1  0
 30 11  1  0
 11 32  2  0
 29 12  1  0
 12 33  2  0
 14 13  1  0
 23 14  1  0
 35 15  1  6
 16 18  1  0
 34 16  1  0
 17 19  1  0
 34 17  1  0
 18 35  1  0
 19 35  1  0
 32 20  1  0
 21 28  1  0
 31 21  1  0
 29 22  1  0
 30 23  1  0
 24 25  1  0
 28 26  2  0
 27 31  2  0
 29 30  2  0
 31 33  1  0
 32 33  1  0
M  CHG  2  34   1  35   1
M  END
$$$$
