
     RDKit          3D

 36 39  0  0  0  0  0  0  0  0999 V2000
  -53.9933  -15.1407   11.5561 C   0  0  0  0  0  0  0  0  0  0  0  0
  -43.9424  -16.3639   13.0022 O   0  0  0  0  0  0  0  0  0  0  0  0
  -56.7354  -10.9596   14.1241 C   0  0  0  0  0  0  0  0  0  0  0  0
  -45.0107  -13.9312   10.7748 N   0  0  0  0  0  0  0  0  0  0  0  0
  -43.1479  -18.2371   10.8061 Cl  0  0  0  0  0  0  0  0  0  0  0  0
  -48.0641  -17.1416    8.7788 Cl  0  0  0  0  0  0  0  0  0  0  0  0
  -46.1539  -13.5538   11.1344 C   0  0  0  0  0  0  0  0  0  0  0  0
  -47.7310  -11.8260   11.8545 C   0  0  0  0  0  0  0  0  0  0  0  0
  -45.6675  -17.5668    9.9735 C   0  0  0  0  0  0  0  0  0  0  0  0
  -46.1456  -15.9106   12.0731 C   0  0  0  0  0  0  0  0  0  0  0  0
  -51.2214  -11.9236   12.7506 C   0  0  0  0  0  0  0  0  0  0  0  0
  -50.7908  -14.5280   12.1189 C   0  0  0  0  0  0  0  0  0  0  0  0
  -55.7015  -11.6733   13.3363 C   0  0  0  0  0  0  0  0  0  0  0  0
  -54.3702  -11.8637   14.0571 C   0  0  0  0  0  0  0  0  0  0  0  0
  -61.2900  -12.2889   13.5464 C   0  0  0  0  0  0  0  0  0  0  0  0
  -58.4097  -10.7606   12.3869 C   0  0  0  0  0  0  0  0  0  0  0  0
  -59.0812  -10.6678   14.6986 C   0  0  0  0  0  0  0  0  0  0  0  0
  -59.7414  -11.4448   12.0364 C   0  0  0  0  0  0  0  0  0  0  0  0
  -60.3277  -10.1667   14.0050 C   0  0  0  0  0  0  0  0  0  0  0  0
  -48.9439  -11.4425   12.2366 N   0  0  0  0  0  0  0  0  0  0  0  0
  -48.3166  -15.3783   11.2085 N   0  0  0  0  0  0  0  0  0  0  0  0
  -53.1006  -15.0698   12.6830 O   0  0  0  0  0  0  0  0  0  0  0  0
  -53.4804  -12.4535   13.2885 O   0  0  0  0  0  0  0  0  0  0  0  0
  -44.9040  -16.5596   12.0167 C   0  0  0  0  0  0  0  0  0  0  0  0
  -44.6912  -17.3877   10.9494 C   0  0  0  0  0  0  0  0  0  0  0  0
  -46.8707  -16.9160   10.0594 C   0  0  0  0  0  0  0  0  0  0  0  0
  -47.4036  -13.1493   11.5032 C   0  0  0  0  0  0  0  0  0  0  0  0
  -47.1030  -16.0863   11.1183 C   0  0  0  0  0  0  0  0  0  0  0  0
  -52.0373  -14.1543   12.5499 C   0  0  0  0  0  0  0  0  0  0  0  0
  -52.2970  -12.8169   12.8829 C   0  0  0  0  0  0  0  0  0  0  0  0
  -48.4661  -14.0198   11.5905 C   0  0  0  0  0  0  0  0  0  0  0  0
  -49.9895  -12.3119   12.3227 C   0  0  0  0  0  0  0  0  0  0  0  0
  -49.7396  -13.6241   11.9929 C   0  0  0  0  0  0  0  0  0  0  0  0
  -58.0953  -11.1156   13.7578 N   0  0  2  0  0  4  0  0  0  0  0  0
  -60.7696  -11.0825   12.9583 N   0  0  2  0  0  4  0  0  0  0  0  0
  -44.1320  -15.4005   14.0285 C   0  0  0  0  0  0  0  0  0  0  0  0
 22  1  1  0
 24  2  1  0
  2 36  1  0
 13  3  1  0
 34  3  1  1
  7  4  3  0
 25  5  1  0
 26  6  1  0
 27  7  1  0
 20  8  2  0
  8 27  1  0
  9 25  2  0
 26  9  1  0
 10 24  2  0
 28 10  1  0
 30 11  1  0
 11 32  2  0
 29 12  1  0
 12 33  2  0
 14 13  1  0
 23 14  1  0
 35 15  1  1
 16 18  1  0
 34 16  1  0
 17 19  1  0
 34 17  1  0
 18 35  1  0
 19 35  1  0
 32 20  1  0
 21 28  1  0
 31 21  1  0
 29 22  1  0
 30 23  1  0
 24 25  1  0
 28 26  2  0
 27 31  2  0
 29 30  2  0
 31 33  1  0
 32 33  1  0
M  CHG  2  34   1  35   1
M  END
$$$$
