
     RDKit          3D

 36 39  0  0  0  0  0  0  0  0999 V2000
  -52.4927  -16.3548   13.2137 C   0  0  0  0  0  0  0  0  0  0  0  0
  -45.8283  -17.8484    8.2404 O   0  0  0  0  0  0  0  0  0  0  0  0
  -56.8400  -11.0773   13.7943 C   0  0  0  0  0  0  0  0  0  0  0  0
  -45.0310  -13.6998   10.6480 N   0  0  0  0  0  0  0  0  0  0  0  0
  -43.2430  -17.9384    9.7476 Cl  0  0  0  0  0  0  0  0  0  0  0  0
  -45.8992  -15.0225   13.4787 Cl  0  0  0  0  0  0  0  0  0  0  0  0
  -46.1792  -13.3520   11.0215 C   0  0  0  0  0  0  0  0  0  0  0  0
  -47.8238  -11.6197   11.5557 C   0  0  0  0  0  0  0  0  0  0  0  0
  -44.7561  -16.4588   11.4831 C   0  0  0  0  0  0  0  0  0  0  0  0
  -46.9815  -16.5254    9.9265 C   0  0  0  0  0  0  0  0  0  0  0  0
  -51.2382  -11.7623   12.7032 C   0  0  0  0  0  0  0  0  0  0  0  0
  -50.6699  -14.4074   12.4837 C   0  0  0  0  0  0  0  0  0  0  0  0
  -55.6306  -11.6019   13.1151 C   0  0  0  0  0  0  0  0  0  0  0  0
  -54.3479  -11.5080   13.9360 C   0  0  0  0  0  0  0  0  0  0  0  0
  -60.5040  -13.7097   12.2161 C   0  0  0  0  0  0  0  0  0  0  0  0
  -59.1955  -10.7191   13.3653 C   0  0  0  0  0  0  0  0  0  0  0  0
  -58.4508  -12.8570   14.1889 C   0  0  0  0  0  0  0  0  0  0  0  0
  -60.3041  -11.4231   12.5653 C   0  0  0  0  0  0  0  0  0  0  0  0
  -59.9446  -12.9597   14.3989 C   0  0  0  0  0  0  0  0  0  0  0  0
  -49.0344  -11.2466   11.9546 N   0  0  0  0  0  0  0  0  0  0  0  0
  -48.2036  -15.2577   11.5524 N   0  0  0  0  0  0  0  0  0  0  0  0
  -52.8986  -14.9762   13.2939 O   0  0  0  0  0  0  0  0  0  0  0  0
  -53.4187  -12.3210   13.4820 O   0  0  0  0  0  0  0  0  0  0  0  0
  -45.8330  -17.1813    9.4607 C   0  0  0  0  0  0  0  0  0  0  0  0
  -44.7278  -17.1306   10.2644 C   0  0  0  0  0  0  0  0  0  0  0  0
  -45.8964  -15.8283   11.9084 C   0  0  0  0  0  0  0  0  0  0  0  0
  -47.4287  -12.9626   11.4065 C   0  0  0  0  0  0  0  0  0  0  0  0
  -47.0099  -15.8660   11.1195 C   0  0  0  0  0  0  0  0  0  0  0  0
  -51.9105  -14.0375   12.9348 C   0  0  0  0  0  0  0  0  0  0  0  0
  -52.2402  -12.6799   13.0587 C   0  0  0  0  0  0  0  0  0  0  0  0
  -48.4220  -13.8647   11.7131 C   0  0  0  0  0  0  0  0  0  0  0  0
  -50.0110  -12.1468   12.2586 C   0  0  0  0  0  0  0  0  0  0  0  0
  -49.6926  -13.4797   12.1343 C   0  0  0  0  0  0  0  0  0  0  0  0
  -58.0958  -11.6573   13.4873 N   0  0  2  0  0  4  0  0  0  0  0  0
  -60.6846  -12.6548   13.1788 N   0  0  2  0  0  4  0  0  0  0  0  0
  -46.7709  -17.5277    7.2275 C   0  0  0  0  0  0  0  0  0  0  0  0
 22  1  1  0
 24  2  1  0
  2 36  1  0
 13  3  1  0
 34  3  1  1
  7  4  3  0
 25  5  1  0
 26  6  1  0
 27  7  1  0
 20  8  2  0
  8 27  1  0
  9 25  2  0
 26  9  1  0
 10 24  2  0
 28 10  1  0
 30 11  1  0
 11 32  2  0
 29 12  1  0
 12 33  2  0
 14 13  1  0
 23 14  1  0
 35 15  1  6
 16 18  1  0
 34 16  1  0
 17 19  1  0
 34 17  1  0
 18 35  1  0
 19 35  1  0
 32 20  1  0
 21 28  1  0
 31 21  1  0
 29 22  1  0
 30 23  1  0
 24 25  1  0
 28 26  2  0
 27 31  2  0
 29 30  2  0
 31 33  1  0
 32 33  1  0
M  CHG  2  34   1  35   1
M  END
$$$$
