
     RDKit          3D

 36 39  0  0  0  0  0  0  0  0999 V2000
  -53.6600  -15.7953   11.2242 C   0  0  0  0  0  0  0  0  0  0  0  0
  -43.6725  -15.8154   12.3492 O   0  0  0  0  0  0  0  0  0  0  0  0
  -56.8016  -11.1766   13.2226 C   0  0  0  0  0  0  0  0  0  0  0  0
  -45.0970  -13.5909   10.4219 N   0  0  0  0  0  0  0  0  0  0  0  0
  -42.8806  -17.5252   10.0226 Cl  0  0  0  0  0  0  0  0  0  0  0  0
  -48.0456  -16.9154    8.4637 Cl  0  0  0  0  0  0  0  0  0  0  0  0
  -46.2739  -13.2696   10.7224 C   0  0  0  0  0  0  0  0  0  0  0  0
  -48.0024  -11.6269   11.2747 C   0  0  0  0  0  0  0  0  0  0  0  0
  -45.5210  -17.1105    9.4334 C   0  0  0  0  0  0  0  0  0  0  0  0
  -45.9850  -15.5789   11.6285 C   0  0  0  0  0  0  0  0  0  0  0  0
  -51.4775  -11.9460   12.1784 C   0  0  0  0  0  0  0  0  0  0  0  0
  -50.8147  -14.5507   11.7990 C   0  0  0  0  0  0  0  0  0  0  0  0
  -55.3949  -11.2826   13.6796 C   0  0  0  0  0  0  0  0  0  0  0  0
  -54.7715  -12.6645   13.5069 C   0  0  0  0  0  0  0  0  0  0  0  0
  -60.5156   -9.1098   15.4088 C   0  0  0  0  0  0  0  0  0  0  0  0
  -57.2637  -10.2933   15.4288 C   0  0  0  0  0  0  0  0  0  0  0  0
  -59.0248  -11.3741   14.1903 C   0  0  0  0  0  0  0  0  0  0  0  0
  -58.2989   -9.3460   16.0575 C   0  0  0  0  0  0  0  0  0  0  0  0
  -59.6303  -11.3072   15.5740 C   0  0  0  0  0  0  0  0  0  0  0  0
  -49.2472  -11.3172   11.6190 N   0  0  0  0  0  0  0  0  0  0  0  0
  -48.2684  -15.2624   10.9726 N   0  0  0  0  0  0  0  0  0  0  0  0
  -53.0722  -15.2379   12.4140 O   0  0  0  0  0  0  0  0  0  0  0  0
  -53.6853  -12.6195   12.7662 O   0  0  0  0  0  0  0  0  0  0  0  0
  -44.6912  -16.0862   11.4420 C   0  0  0  0  0  0  0  0  0  0  0  0
  -44.4868  -16.8543   10.3291 C   0  0  0  0  0  0  0  0  0  0  0  0
  -46.7744  -16.5982    9.6463 C   0  0  0  0  0  0  0  0  0  0  0  0
  -47.5572  -12.9436   11.0516 C   0  0  0  0  0  0  0  0  0  0  0  0
  -46.9990  -15.8303   10.7524 C   0  0  0  0  0  0  0  0  0  0  0  0
  -52.0926  -14.2490   12.1931 C   0  0  0  0  0  0  0  0  0  0  0  0
  -52.4714  -12.9140   12.3964 C   0  0  0  0  0  0  0  0  0  0  0  0
  -48.5397  -13.8921   11.2227 C   0  0  0  0  0  0  0  0  0  0  0  0
  -50.2130  -12.2632   11.7888 C   0  0  0  0  0  0  0  0  0  0  0  0
  -49.8461  -13.5738   11.5862 C   0  0  0  0  0  0  0  0  0  0  0  0
  -57.7726  -10.6773   14.1257 N   0  0  2  0  0  4  0  0  0  0  0  0
  -59.5895   -9.9536   16.1176 N   0  0  2  0  0  4  0  0  0  0  0  0
  -43.8567  -14.8743   13.3968 C   0  0  0  0  0  0  0  0  0  0  0  0
 22  1  1  0
 24  2  1  0
  2 36  1  0
 13  3  1  0
 34  3  1  1
  7  4  3  0
 25  5  1  0
 26  6  1  0
 27  7  1  0
 20  8  2  0
  8 27  1  0
  9 25  2  0
 26  9  1  0
 10 24  2  0
 28 10  1  0
 30 11  1  0
 11 32  2  0
 29 12  1  0
 12 33  2  0
 14 13  1  0
 23 14  1  0
 35 15  1  6
 16 18  1  0
 34 16  1  0
 17 19  1  0
 34 17  1  0
 18 35  1  0
 19 35  1  0
 32 20  1  0
 21 28  1  0
 31 21  1  0
 29 22  1  0
 30 23  1  0
 24 25  1  0
 28 26  2  0
 27 31  2  0
 29 30  2  0
 31 33  1  0
 32 33  1  0
M  CHG  2  34   1  35   1
M  END
$$$$
