
     RDKit          3D

 36 39  0  0  0  0  0  0  0  0999 V2000
  -53.2546  -15.8299   13.8071 C   0  0  0  0  0  0  0  0  0  0  0  0
  -44.0301  -16.2200   12.7000 O   0  0  0  0  0  0  0  0  0  0  0  0
  -56.9384  -11.1664   13.7930 C   0  0  0  0  0  0  0  0  0  0  0  0
  -45.1365  -13.8005   10.5876 N   0  0  0  0  0  0  0  0  0  0  0  0
  -43.3537  -18.2854   10.6409 Cl  0  0  0  0  0  0  0  0  0  0  0  0
  -48.3147  -17.2426    8.6966 Cl  0  0  0  0  0  0  0  0  0  0  0  0
  -46.2739  -13.4630   11.0012 C   0  0  0  0  0  0  0  0  0  0  0  0
  -47.8255  -11.7932   11.8929 C   0  0  0  0  0  0  0  0  0  0  0  0
  -45.8866  -17.6256    9.8410 C   0  0  0  0  0  0  0  0  0  0  0  0
  -46.2549  -15.7919   11.8112 C   0  0  0  0  0  0  0  0  0  0  0  0
  -51.2951  -11.9506   12.8583 C   0  0  0  0  0  0  0  0  0  0  0  0
  -50.8921  -14.4976   12.0111 C   0  0  0  0  0  0  0  0  0  0  0  0
  -55.7956  -11.8696   13.1616 C   0  0  0  0  0  0  0  0  0  0  0  0
  -54.4704  -11.7255   13.9039 C   0  0  0  0  0  0  0  0  0  0  0  0
  -60.7173  -11.5853   10.8966 C   0  0  0  0  0  0  0  0  0  0  0  0
  -59.2818  -10.5643   13.8754 C   0  0  0  0  0  0  0  0  0  0  0  0
  -58.6144  -12.5840   12.7444 C   0  0  0  0  0  0  0  0  0  0  0  0
  -60.4244  -10.3848   12.8622 C   0  0  0  0  0  0  0  0  0  0  0  0
  -60.1090  -12.7833   12.8548 C   0  0  0  0  0  0  0  0  0  0  0  0
  -49.0274  -11.4374   12.3321 N   0  0  0  0  0  0  0  0  0  0  0  0
  -48.4436  -15.2806   10.9792 N   0  0  0  0  0  0  0  0  0  0  0  0
  -53.1913  -15.0753   12.5831 O   0  0  0  0  0  0  0  0  0  0  0  0
  -53.5440  -12.5145   13.4040 O   0  0  0  0  0  0  0  0  0  0  0  0
  -45.0300  -16.4729   11.7670 C   0  0  0  0  0  0  0  0  0  0  0  0
  -44.8728  -17.3904   10.7653 C   0  0  0  0  0  0  0  0  0  0  0  0
  -47.0721  -16.9414    9.9133 C   0  0  0  0  0  0  0  0  0  0  0  0
  -47.5128  -13.0852   11.4297 C   0  0  0  0  0  0  0  0  0  0  0  0
  -47.2491  -16.0223   10.9071 C   0  0  0  0  0  0  0  0  0  0  0  0
  -52.1267  -14.1555   12.4991 C   0  0  0  0  0  0  0  0  0  0  0  0
  -52.3720  -12.8481   12.9436 C   0  0  0  0  0  0  0  0  0  0  0  0
  -48.5775  -13.9564   11.4717 C   0  0  0  0  0  0  0  0  0  0  0  0
  -50.0752  -12.3075   12.3726 C   0  0  0  0  0  0  0  0  0  0  0  0
  -49.8396  -13.5900   11.9335 C   0  0  0  0  0  0  0  0  0  0  0  0
  -58.2188  -11.2816   13.1972 N   0  0  2  0  0  4  0  0  0  0  0  0
  -60.8476  -11.6398   12.3291 N   0  0  2  0  0  4  0  0  0  0  0  0
  -44.2133  -15.2546   13.7255 C   0  0  0  0  0  0  0  0  0  0  0  0
 22  1  1  0
 24  2  1  0
  2 36  1  0
 13  3  1  0
 34  3  1  1
  7  4  3  0
 25  5  1  0
 26  6  1  0
 27  7  1  0
 20  8  2  0
  8 27  1  0
  9 25  2  0
 26  9  1  0
 10 24  2  0
 28 10  1  0
 30 11  1  0
 11 32  2  0
 29 12  1  0
 12 33  2  0
 14 13  1  0
 23 14  1  0
 35 15  1  6
 16 18  1  0
 34 16  1  0
 17 19  1  0
 34 17  1  0
 18 35  1  0
 19 35  1  0
 32 20  1  0
 21 28  1  0
 31 21  1  0
 29 22  1  0
 30 23  1  0
 24 25  1  0
 28 26  2  0
 27 31  2  0
 29 30  2  0
 31 33  1  0
 32 33  1  0
M  CHG  2  34   1  35   1
M  END
$$$$
