
     RDKit          3D

 36 39  0  0  0  0  0  0  0  0999 V2000
  -53.6047  -15.4767   12.0233 C   0  0  0  0  0  0  0  0  0  0  0  0
  -43.8567  -15.7303   12.4077 O   0  0  0  0  0  0  0  0  0  0  0  0
  -56.9785  -10.9598   13.7114 C   0  0  0  0  0  0  0  0  0  0  0  0
  -45.2840  -13.4868   10.2309 N   0  0  0  0  0  0  0  0  0  0  0  0
  -43.2680  -17.6993   10.2305 Cl  0  0  0  0  0  0  0  0  0  0  0  0
  -48.4492  -16.9136    8.8106 Cl  0  0  0  0  0  0  0  0  0  0  0  0
  -46.4031  -13.1394   10.6842 C   0  0  0  0  0  0  0  0  0  0  0  0
  -47.9609  -11.4083   11.4375 C   0  0  0  0  0  0  0  0  0  0  0  0
  -45.9017  -17.1757    9.7013 C   0  0  0  0  0  0  0  0  0  0  0  0
  -46.1797  -15.4170   11.7529 C   0  0  0  0  0  0  0  0  0  0  0  0
  -51.3226  -11.5416   12.7323 C   0  0  0  0  0  0  0  0  0  0  0  0
  -50.8566  -14.1752   12.2693 C   0  0  0  0  0  0  0  0  0  0  0  0
  -55.8181  -11.8328   13.4111 C   0  0  0  0  0  0  0  0  0  0  0  0
  -54.4719  -11.2851   13.8755 C   0  0  0  0  0  0  0  0  0  0  0  0
  -61.5669  -12.2492   14.0701 C   0  0  0  0  0  0  0  0  0  0  0  0
  -58.3497  -12.7891   12.9151 C   0  0  0  0  0  0  0  0  0  0  0  0
  -59.3033  -10.5846   13.1009 C   0  0  0  0  0  0  0  0  0  0  0  0
  -59.7141  -13.4002   13.2749 C   0  0  0  0  0  0  0  0  0  0  0  0
  -60.3486  -11.2933   12.2696 C   0  0  0  0  0  0  0  0  0  0  0  0
  -49.1386  -11.0329   11.9234 N   0  0  0  0  0  0  0  0  0  0  0  0
  -48.4659  -15.0199   11.1536 N   0  0  0  0  0  0  0  0  0  0  0  0
  -53.0645  -14.7412   13.1363 O   0  0  0  0  0  0  0  0  0  0  0  0
  -53.4835  -12.0963   13.5667 O   0  0  0  0  0  0  0  0  0  0  0  0
  -44.9275  -16.0207   11.5691 C   0  0  0  0  0  0  0  0  0  0  0  0
  -44.8169  -16.9020   10.5293 C   0  0  0  0  0  0  0  0  0  0  0  0
  -47.1121  -16.5671    9.9093 C   0  0  0  0  0  0  0  0  0  0  0  0
  -47.6197  -12.7455   11.1596 C   0  0  0  0  0  0  0  0  0  0  0  0
  -47.2432  -15.6853   10.9432 C   0  0  0  0  0  0  0  0  0  0  0  0
  -52.0619  -13.8065   12.8084 C   0  0  0  0  0  0  0  0  0  0  0  0
  -52.3385  -12.4546   13.0591 C   0  0  0  0  0  0  0  0  0  0  0  0
  -48.6286  -13.6392   11.4385 C   0  0  0  0  0  0  0  0  0  0  0  0
  -50.1309  -11.9250   12.1991 C   0  0  0  0  0  0  0  0  0  0  0  0
  -49.8647  -13.2519   11.9506 C   0  0  0  0  0  0  0  0  0  0  0  0
  -58.2838  -11.4874   13.5520 N   0  0  2  0  0  4  0  0  0  0  0  0
  -60.7859  -12.5367   12.8956 N   0  0  2  0  0  4  0  0  0  0  0  0
  -43.9825  -14.7750   13.4511 C   0  0  0  0  0  0  0  0  0  0  0  0
 22  1  1  0
 24  2  1  0
  2 36  1  0
 13  3  1  0
 34  3  1  6
  7  4  3  0
 25  5  1  0
 26  6  1  0
 27  7  1  0
 20  8  2  0
  8 27  1  0
  9 25  2  0
 26  9  1  0
 10 24  2  0
 28 10  1  0
 30 11  1  0
 11 32  2  0
 29 12  1  0
 12 33  2  0
 14 13  1  0
 23 14  1  0
 35 15  1  1
 16 18  1  0
 34 16  1  0
 17 19  1  0
 34 17  1  0
 18 35  1  0
 19 35  1  0
 32 20  1  0
 21 28  1  0
 31 21  1  0
 29 22  1  0
 30 23  1  0
 24 25  1  0
 28 26  2  0
 27 31  2  0
 29 30  2  0
 31 33  1  0
 32 33  1  0
M  CHG  2  34   1  35   1
M  END
$$$$
