
     RDKit          3D

 36 39  0  0  0  0  0  0  0  0999 V2000
  -53.8306  -15.8207   11.3546 C   0  0  0  0  0  0  0  0  0  0  0  0
  -43.9861  -16.0941   12.0709 O   0  0  0  0  0  0  0  0  0  0  0  0
  -57.1594  -10.8060   13.5396 C   0  0  0  0  0  0  0  0  0  0  0  0
  -45.3508  -14.2844   11.1727 N   0  0  0  0  0  0  0  0  0  0  0  0
  -43.6589  -18.3476   10.1271 Cl  0  0  0  0  0  0  0  0  0  0  0  0
  -49.0007  -17.7766    9.3407 Cl  0  0  0  0  0  0  0  0  0  0  0  0
  -46.4945  -13.8485   11.4568 C   0  0  0  0  0  0  0  0  0  0  0  0
  -48.0350  -12.0550   12.0898 C   0  0  0  0  0  0  0  0  0  0  0  0
  -46.3506  -17.9074    9.8990 C   0  0  0  0  0  0  0  0  0  0  0  0
  -46.3827  -15.8792   11.7059 C   0  0  0  0  0  0  0  0  0  0  0  0
  -51.5762  -11.9991   12.7622 C   0  0  0  0  0  0  0  0  0  0  0  0
  -51.2236  -14.6169   12.1376 C   0  0  0  0  0  0  0  0  0  0  0  0
  -56.1454  -11.7723   13.0528 C   0  0  0  0  0  0  0  0  0  0  0  0
  -54.7848  -11.6657   13.7351 C   0  0  0  0  0  0  0  0  0  0  0  0
  -61.3778  -12.0187   11.6476 C   0  0  0  0  0  0  0  0  0  0  0  0
  -59.4488  -10.0432   13.7339 C   0  0  0  0  0  0  0  0  0  0  0  0
  -59.0032  -12.3866   13.3969 C   0  0  0  0  0  0  0  0  0  0  0  0
  -60.7444  -10.1809   12.9173 C   0  0  0  0  0  0  0  0  0  0  0  0
  -60.4596  -12.4146   13.8017 C   0  0  0  0  0  0  0  0  0  0  0  0
  -49.2513  -11.6190   12.3975 N   0  0  0  0  0  0  0  0  0  0  0  0
  -48.7372  -15.5736   11.3787 N   0  0  0  0  0  0  0  0  0  0  0  0
  -53.5866  -15.0566   12.5497 O   0  0  0  0  0  0  0  0  0  0  0  0
  -53.8864  -12.4290   13.1516 O   0  0  0  0  0  0  0  0  0  0  0  0
  -45.1551  -16.5007   11.4364 C   0  0  0  0  0  0  0  0  0  0  0  0
  -45.1689  -17.5187   10.5235 C   0  0  0  0  0  0  0  0  0  0  0  0
  -47.5337  -17.2776   10.1857 C   0  0  0  0  0  0  0  0  0  0  0  0
  -47.7457  -13.3898   11.7490 C   0  0  0  0  0  0  0  0  0  0  0  0
  -47.5410  -16.2600   11.0957 C   0  0  0  0  0  0  0  0  0  0  0  0
  -52.4770  -14.1895   12.4919 C   0  0  0  0  0  0  0  0  0  0  0  0
  -52.6971  -12.8434   12.8188 C   0  0  0  0  0  0  0  0  0  0  0  0
  -48.8496  -14.2117   11.7617 C   0  0  0  0  0  0  0  0  0  0  0  0
  -50.3383  -12.4405   12.4100 C   0  0  0  0  0  0  0  0  0  0  0  0
  -50.1271  -13.7609   12.0858 C   0  0  0  0  0  0  0  0  0  0  0  0
  -58.5233  -11.0441   13.2380 N   0  0  2  0  0  4  0  0  0  0  0  0
  -61.2645  -11.5086   12.9889 N   0  0  2  0  0  4  0  0  0  0  0  0
  -43.9957  -15.0278   13.0090 C   0  0  0  0  0  0  0  0  0  0  0  0
 22  1  1  0
 24  2  1  0
  2 36  1  0
 13  3  1  0
 34  3  1  1
  7  4  3  0
 25  5  1  0
 26  6  1  0
 27  7  1  0
 20  8  2  0
  8 27  1  0
  9 25  2  0
 26  9  1  0
 10 24  2  0
 28 10  1  0
 30 11  1  0
 11 32  2  0
 29 12  1  0
 12 33  2  0
 14 13  1  0
 23 14  1  0
 35 15  1  6
 16 18  1  0
 34 16  1  0
 17 19  1  0
 34 17  1  0
 18 35  1  0
 19 35  1  0
 32 20  1  0
 21 28  1  0
 31 21  1  0
 29 22  1  0
 30 23  1  0
 24 25  1  0
 28 26  2  0
 27 31  2  0
 29 30  2  0
 31 33  1  0
 32 33  1  0
M  CHG  2  34   1  35   1
M  END
$$$$
