
     RDKit          3D

 36 39  0  0  0  0  0  0  0  0999 V2000
  -53.6081  -15.7488   11.0636 C   0  0  0  0  0  0  0  0  0  0  0  0
  -43.8724  -15.4727   12.6766 O   0  0  0  0  0  0  0  0  0  0  0  0
  -56.1430  -10.6265   14.6751 C   0  0  0  0  0  0  0  0  0  0  0  0
  -45.1655  -13.4996   10.6238 N   0  0  0  0  0  0  0  0  0  0  0  0
  -43.0105  -17.5793   10.7316 Cl  0  0  0  0  0  0  0  0  0  0  0  0
  -48.0882  -17.2013    8.8465 Cl  0  0  0  0  0  0  0  0  0  0  0  0
  -46.3516  -13.1660   10.8696 C   0  0  0  0  0  0  0  0  0  0  0  0
  -48.0702  -11.4996   11.3799 C   0  0  0  0  0  0  0  0  0  0  0  0
  -45.6136  -17.2477    9.9538 C   0  0  0  0  0  0  0  0  0  0  0  0
  -46.1455  -15.3435   11.8168 C   0  0  0  0  0  0  0  0  0  0  0  0
  -51.5839  -11.7667   12.1398 C   0  0  0  0  0  0  0  0  0  0  0  0
  -50.9545  -14.3772   11.7441 C   0  0  0  0  0  0  0  0  0  0  0  0
  -55.6238  -11.8664   14.0490 C   0  0  0  0  0  0  0  0  0  0  0  0
  -54.9008  -11.6553   12.7220 C   0  0  0  0  0  0  0  0  0  0  0  0
  -60.9115  -10.9412   14.5929 C   0  0  0  0  0  0  0  0  0  0  0  0
  -58.0027   -9.1462   15.1342 C   0  0  0  0  0  0  0  0  0  0  0  0
  -58.1926  -11.4891   15.6614 C   0  0  0  0  0  0  0  0  0  0  0  0
  -59.5048   -9.1067   14.8078 C   0  0  0  0  0  0  0  0  0  0  0  0
  -59.3781  -10.9182   16.4061 C   0  0  0  0  0  0  0  0  0  0  0  0
  -49.3219  -11.1717   11.6797 N   0  0  0  0  0  0  0  0  0  0  0  0
  -48.3908  -15.1242   11.0077 N   0  0  0  0  0  0  0  0  0  0  0  0
  -53.2471  -15.0309   12.2577 O   0  0  0  0  0  0  0  0  0  0  0  0
  -53.8255  -12.4071   12.6284 O   0  0  0  0  0  0  0  0  0  0  0  0
  -44.8547  -15.8901   11.7849 C   0  0  0  0  0  0  0  0  0  0  0  0
  -44.6156  -16.8469   10.8375 C   0  0  0  0  0  0  0  0  0  0  0  0
  -46.8651  -16.6918   10.0125 C   0  0  0  0  0  0  0  0  0  0  0  0
  -47.6407  -12.8209   11.1530 C   0  0  0  0  0  0  0  0  0  0  0  0
  -47.1240  -15.7362   10.9524 C   0  0  0  0  0  0  0  0  0  0  0  0
  -52.2414  -14.0575   12.0921 C   0  0  0  0  0  0  0  0  0  0  0  0
  -52.6034  -12.7189   12.3023 C   0  0  0  0  0  0  0  0  0  0  0  0
  -48.6466  -13.7531   11.2694 C   0  0  0  0  0  0  0  0  0  0  0  0
  -50.3109  -12.1017   11.7955 C   0  0  0  0  0  0  0  0  0  0  0  0
  -49.9604  -13.4157   11.5860 C   0  0  0  0  0  0  0  0  0  0  0  0
  -57.5416  -10.4938   14.8594 N   0  0  2  0  0  4  0  0  0  0  0  0
  -60.2210  -10.1030   15.5377 N   0  0  2  0  0  4  0  0  0  0  0  0
  -44.1421  -14.4699   13.6456 C   0  0  0  0  0  0  0  0  0  0  0  0
 22  1  1  0
 24  2  1  0
  2 36  1  0
 13  3  1  0
 34  3  1  1
  7  4  3  0
 25  5  1  0
 26  6  1  0
 27  7  1  0
 20  8  2  0
  8 27  1  0
  9 25  2  0
 26  9  1  0
 10 24  2  0
 28 10  1  0
 30 11  1  0
 11 32  2  0
 29 12  1  0
 12 33  2  0
 14 13  1  0
 23 14  1  0
 35 15  1  6
 16 18  1  0
 34 16  1  0
 17 19  1  0
 34 17  1  0
 18 35  1  0
 19 35  1  0
 32 20  1  0
 21 28  1  0
 31 21  1  0
 29 22  1  0
 30 23  1  0
 24 25  1  0
 28 26  2  0
 27 31  2  0
 29 30  2  0
 31 33  1  0
 32 33  1  0
M  CHG  2  34   1  35   1
M  END
$$$$
