
     RDKit          3D

 36 39  0  0  0  0  0  0  0  0999 V2000
  -54.0539  -16.0574   13.0815 C   0  0  0  0  0  0  0  0  0  0  0  0
  -46.5722  -16.0965    8.1343 O   0  0  0  0  0  0  0  0  0  0  0  0
  -57.5724  -10.3571   13.5691 C   0  0  0  0  0  0  0  0  0  0  0  0
  -45.9387  -14.8527   11.6178 N   0  0  0  0  0  0  0  0  0  0  0  0
  -47.1913  -18.9632    7.5325 Cl  0  0  0  0  0  0  0  0  0  0  0  0
  -50.4249  -18.6527   11.8831 Cl  0  0  0  0  0  0  0  0  0  0  0  0
  -47.0590  -14.3043   11.7686 C   0  0  0  0  0  0  0  0  0  0  0  0
  -48.4342  -12.2910   11.9848 C   0  0  0  0  0  0  0  0  0  0  0  0
  -48.7390  -18.5980    9.7601 C   0  0  0  0  0  0  0  0  0  0  0  0
  -48.0178  -15.9998   10.0898 C   0  0  0  0  0  0  0  0  0  0  0  0
  -51.9574  -11.7882   12.5587 C   0  0  0  0  0  0  0  0  0  0  0  0
  -51.8392  -14.4992   12.4973 C   0  0  0  0  0  0  0  0  0  0  0  0
  -56.5804  -11.3670   13.1276 C   0  0  0  0  0  0  0  0  0  0  0  0
  -55.1268  -10.9961   13.4062 C   0  0  0  0  0  0  0  0  0  0  0  0
  -62.2080  -10.7893   12.4876 C   0  0  0  0  0  0  0  0  0  0  0  0
  -58.8811  -10.6210   11.5496 C   0  0  0  0  0  0  0  0  0  0  0  0
  -59.7736   -9.3380   13.3830 C   0  0  0  0  0  0  0  0  0  0  0  0
  -60.3031  -11.0854   11.1937 C   0  0  0  0  0  0  0  0  0  0  0  0
  -60.7156   -8.9555   12.2641 C   0  0  0  0  0  0  0  0  0  0  0  0
  -49.6071  -11.6963   12.1706 N   0  0  0  0  0  0  0  0  0  0  0  0
  -49.4469  -15.8057   12.0039 N   0  0  0  0  0  0  0  0  0  0  0  0
  -54.2328  -14.6359   12.9434 O   0  0  0  0  0  0  0  0  0  0  0  0
  -54.2974  -11.9247   12.9816 O   0  0  0  0  0  0  0  0  0  0  0  0
  -47.4634  -16.7046    9.0119 C   0  0  0  0  0  0  0  0  0  0  0  0
  -47.8437  -18.0106    8.8708 C   0  0  0  0  0  0  0  0  0  0  0  0
  -49.2625  -17.8793   10.8033 C   0  0  0  0  0  0  0  0  0  0  0  0
  -48.2647  -13.6876   11.9339 C   0  0  0  0  0  0  0  0  0  0  0  0
  -48.8939  -16.5745   10.9622 C   0  0  0  0  0  0  0  0  0  0  0  0
  -53.0500  -13.8998   12.7298 C   0  0  0  0  0  0  0  0  0  0  0  0
  -53.1494  -12.5013   12.7661 C   0  0  0  0  0  0  0  0  0  0  0  0
  -49.4377  -14.3895   12.0941 C   0  0  0  0  0  0  0  0  0  0  0  0
  -50.7632  -12.3993   12.3309 C   0  0  0  0  0  0  0  0  0  0  0  0
  -50.6704  -13.7716   12.2917 C   0  0  0  0  0  0  0  0  0  0  0  0
  -58.8600  -10.3671   12.9777 N   0  0  2  0  0  4  0  0  0  0  0  0
  -61.2800  -10.1297   11.6068 N   0  0  2  0  0  4  0  0  0  0  0  0
  -46.3084  -14.7029    8.2083 C   0  0  0  0  0  0  0  0  0  0  0  0
 22  1  1  0
 24  2  1  0
  2 36  1  0
 13  3  1  0
 34  3  1  6
  7  4  3  0
 25  5  1  0
 26  6  1  0
 27  7  1  0
 20  8  2  0
  8 27  1  0
  9 25  2  0
 26  9  1  0
 10 24  2  0
 28 10  1  0
 30 11  1  0
 11 32  2  0
 29 12  1  0
 12 33  2  0
 14 13  1  0
 23 14  1  0
 35 15  1  1
 16 18  1  0
 34 16  1  0
 17 19  1  0
 34 17  1  0
 18 35  1  0
 19 35  1  0
 32 20  1  0
 21 28  1  0
 31 21  1  0
 29 22  1  0
 30 23  1  0
 24 25  1  0
 28 26  2  0
 27 31  2  0
 29 30  2  0
 31 33  1  0
 32 33  1  0
M  CHG  2  34   1  35   1
M  END
$$$$
