
     RDKit          3D

 36 39  0  0  0  0  0  0  0  0999 V2000
  -53.9862  -15.0386   11.4647 C   0  0  0  0  0  0  0  0  0  0  0  0
  -43.8223  -15.9121   12.6747 O   0  0  0  0  0  0  0  0  0  0  0  0
  -57.0033  -12.1816   13.9197 C   0  0  0  0  0  0  0  0  0  0  0  0
  -45.0787  -13.6900   10.8978 N   0  0  0  0  0  0  0  0  0  0  0  0
  -43.1660  -17.7923   10.4391 Cl  0  0  0  0  0  0  0  0  0  0  0  0
  -48.2953  -16.9299    8.8817 Cl  0  0  0  0  0  0  0  0  0  0  0  0
  -46.2375  -13.2943   11.1795 C   0  0  0  0  0  0  0  0  0  0  0  0
  -47.8453  -11.5476   11.7751 C   0  0  0  0  0  0  0  0  0  0  0  0
  -45.7794  -17.2377    9.8448 C   0  0  0  0  0  0  0  0  0  0  0  0
  -46.1214  -15.5636   11.9567 C   0  0  0  0  0  0  0  0  0  0  0  0
  -51.3542  -11.6334   12.5971 C   0  0  0  0  0  0  0  0  0  0  0  0
  -50.8870  -14.2623   12.1092 C   0  0  0  0  0  0  0  0  0  0  0  0
  -55.6264  -11.7643   14.2793 C   0  0  0  0  0  0  0  0  0  0  0  0
  -54.7262  -11.4455   13.0894 C   0  0  0  0  0  0  0  0  0  0  0  0
  -60.6016   -9.2422   15.0408 C   0  0  0  0  0  0  0  0  0  0  0  0
  -58.1045  -11.4587   15.9508 C   0  0  0  0  0  0  0  0  0  0  0  0
  -59.3918  -11.7200   13.9313 C   0  0  0  0  0  0  0  0  0  0  0  0
  -59.0177  -10.2955   16.3721 C   0  0  0  0  0  0  0  0  0  0  0  0
  -60.4847  -11.6131   14.9706 C   0  0  0  0  0  0  0  0  0  0  0  0
  -49.0698  -11.1570   12.1099 N   0  0  0  0  0  0  0  0  0  0  0  0
  -48.3856  -15.1338   11.2987 N   0  0  0  0  0  0  0  0  0  0  0  0
  -53.2042  -14.7973   12.6488 O   0  0  0  0  0  0  0  0  0  0  0  0
  -53.6202  -12.1573   13.1111 O   0  0  0  0  0  0  0  0  0  0  0  0
  -44.8653  -16.1638   11.7898 C   0  0  0  0  0  0  0  0  0  0  0  0
  -44.7221  -17.0022   10.7189 C   0  0  0  0  0  0  0  0  0  0  0  0
  -46.9947  -16.6337   10.0374 C   0  0  0  0  0  0  0  0  0  0  0  0
  -47.4987  -12.8838   11.4992 C   0  0  0  0  0  0  0  0  0  0  0  0
  -47.1581  -15.7946   11.1017 C   0  0  0  0  0  0  0  0  0  0  0  0
  -52.1462  -13.8794   12.4927 C   0  0  0  0  0  0  0  0  0  0  0  0
  -52.4248  -12.5293   12.7510 C   0  0  0  0  0  0  0  0  0  0  0  0
  -48.5554  -13.7591   11.6073 C   0  0  0  0  0  0  0  0  0  0  0  0
  -50.1096  -12.0310   12.2171 C   0  0  0  0  0  0  0  0  0  0  0  0
  -49.8410  -13.3559   11.9605 C   0  0  0  0  0  0  0  0  0  0  0  0
  -58.0952  -11.4902   14.5006 N   0  0  2  0  0  4  0  0  0  0  0  0
  -60.3220  -10.4284   15.8068 N   0  0  2  0  0  4  0  0  0  0  0  0
  -44.0001  -15.0496   13.7889 C   0  0  0  0  0  0  0  0  0  0  0  0
 22  1  1  0
 24  2  1  0
  2 36  1  0
 13  3  1  0
 34  3  1  1
  7  4  3  0
 25  5  1  0
 26  6  1  0
 27  7  1  0
 20  8  2  0
  8 27  1  0
  9 25  2  0
 26  9  1  0
 10 24  2  0
 28 10  1  0
 30 11  1  0
 11 32  2  0
 29 12  1  0
 12 33  2  0
 14 13  1  0
 23 14  1  0
 35 15  1  6
 16 18  1  0
 34 16  1  0
 17 19  1  0
 34 17  1  0
 18 35  1  0
 19 35  1  0
 32 20  1  0
 21 28  1  0
 31 21  1  0
 29 22  1  0
 30 23  1  0
 24 25  1  0
 28 26  2  0
 27 31  2  0
 29 30  2  0
 31 33  1  0
 32 33  1  0
M  CHG  2  34   1  35   1
M  END
$$$$
