
     RDKit          3D

 36 39  0  0  0  0  0  0  0  0999 V2000
  -52.5868  -16.3476   12.6370 C   0  0  0  0  0  0  0  0  0  0  0  0
  -45.8547  -17.2962    7.9857 O   0  0  0  0  0  0  0  0  0  0  0  0
  -56.9540  -11.9762   14.0946 C   0  0  0  0  0  0  0  0  0  0  0  0
  -44.9024  -13.3707   10.7732 N   0  0  0  0  0  0  0  0  0  0  0  0
  -43.1806  -17.5991    9.2975 Cl  0  0  0  0  0  0  0  0  0  0  0  0
  -45.5314  -15.1158   13.5149 Cl  0  0  0  0  0  0  0  0  0  0  0  0
  -46.0889  -13.0730   11.0601 C   0  0  0  0  0  0  0  0  0  0  0  0
  -47.9037  -11.4536   11.3335 C   0  0  0  0  0  0  0  0  0  0  0  0
  -44.5484  -16.3180   11.2922 C   0  0  0  0  0  0  0  0  0  0  0  0
  -46.8698  -16.1694    9.8891 C   0  0  0  0  0  0  0  0  0  0  0  0
  -51.3417  -11.7872   12.3651 C   0  0  0  0  0  0  0  0  0  0  0  0
  -50.5315  -14.3757   12.4690 C   0  0  0  0  0  0  0  0  0  0  0  0
  -55.8439  -12.2583   13.1528 C   0  0  0  0  0  0  0  0  0  0  0  0
  -54.4839  -11.7250   13.5931 C   0  0  0  0  0  0  0  0  0  0  0  0
  -61.4116  -10.5348   13.1473 C   0  0  0  0  0  0  0  0  0  0  0  0
  -58.1577  -11.1702   12.1549 C   0  0  0  0  0  0  0  0  0  0  0  0
  -58.6970  -10.2961   14.3341 C   0  0  0  0  0  0  0  0  0  0  0  0
  -59.6302  -11.0178   11.7389 C   0  0  0  0  0  0  0  0  0  0  0  0
  -59.3995   -9.3061   13.4328 C   0  0  0  0  0  0  0  0  0  0  0  0
  -49.1600  -11.1536   11.6431 N   0  0  0  0  0  0  0  0  0  0  0  0
  -47.9588  -15.0893   11.7307 N   0  0  0  0  0  0  0  0  0  0  0  0
  -52.7362  -15.0574   13.2573 O   0  0  0  0  0  0  0  0  0  0  0  0
  -53.4980  -12.4579   13.1229 O   0  0  0  0  0  0  0  0  0  0  0  0
  -45.7674  -16.7797    9.2740 C   0  0  0  0  0  0  0  0  0  0  0  0
  -44.6121  -16.8398   10.0033 C   0  0  0  0  0  0  0  0  0  0  0  0
  -45.6459  -15.7282   11.8635 C   0  0  0  0  0  0  0  0  0  0  0  0
  -47.3846  -12.7620   11.3526 C   0  0  0  0  0  0  0  0  0  0  0  0
  -46.8081  -15.6569   11.1510 C   0  0  0  0  0  0  0  0  0  0  0  0
  -51.8196  -14.0759   12.8298 C   0  0  0  0  0  0  0  0  0  0  0  0
  -52.2738  -12.7496   12.7862 C   0  0  0  0  0  0  0  0  0  0  0  0
  -48.3071  -13.7136   11.7237 C   0  0  0  0  0  0  0  0  0  0  0  0
  -50.0660  -12.1021   12.0120 C   0  0  0  0  0  0  0  0  0  0  0  0
  -49.6252  -13.4049   12.0520 C   0  0  0  0  0  0  0  0  0  0  0  0
  -58.1398  -11.3880   13.5890 N   0  0  2  0  0  4  0  0  0  0  0  0
  -60.2712   -9.9735   12.4716 N   0  0  2  0  0  4  0  0  0  0  0  0
  -47.1024  -17.3743    7.3116 C   0  0  0  0  0  0  0  0  0  0  0  0
 22  1  1  0
 24  2  1  0
  2 36  1  0
 13  3  1  0
 34  3  1  1
  7  4  3  0
 25  5  1  0
 26  6  1  0
 27  7  1  0
 20  8  2  0
  8 27  1  0
  9 25  2  0
 26  9  1  0
 10 24  2  0
 28 10  1  0
 30 11  1  0
 11 32  2  0
 29 12  1  0
 12 33  2  0
 14 13  1  0
 23 14  1  0
 35 15  1  1
 16 18  1  0
 34 16  1  0
 17 19  1  0
 34 17  1  0
 18 35  1  0
 19 35  1  0
 32 20  1  0
 21 28  1  0
 31 21  1  0
 29 22  1  0
 30 23  1  0
 24 25  1  0
 28 26  2  0
 27 31  2  0
 29 30  2  0
 31 33  1  0
 32 33  1  0
M  CHG  2  34   1  35   1
M  END
$$$$
