
     RDKit          3D

 36 39  0  0  0  0  0  0  0  0999 V2000
  -52.5349  -16.4639   12.8296 C   0  0  0  0  0  0  0  0  0  0  0  0
  -44.7596  -15.2288    8.4933 O   0  0  0  0  0  0  0  0  0  0  0  0
  -57.0687  -12.4035   12.4498 C   0  0  0  0  0  0  0  0  0  0  0  0
  -44.7919  -13.6102   11.7148 N   0  0  0  0  0  0  0  0  0  0  0  0
  -43.2590  -17.6256    9.4768 Cl  0  0  0  0  0  0  0  0  0  0  0  0
  -46.9325  -17.6565   13.4748 Cl  0  0  0  0  0  0  0  0  0  0  0  0
  -45.9923  -13.2921   11.9060 C   0  0  0  0  0  0  0  0  0  0  0  0
  -47.7386  -11.6050   12.2144 C   0  0  0  0  0  0  0  0  0  0  0  0
  -45.1903  -17.4460   11.4078 C   0  0  0  0  0  0  0  0  0  0  0  0
  -46.3780  -15.2631   10.3106 C   0  0  0  0  0  0  0  0  0  0  0  0
  -51.2907  -11.8402   12.7826 C   0  0  0  0  0  0  0  0  0  0  0  0
  -50.6379  -14.4672   12.5815 C   0  0  0  0  0  0  0  0  0  0  0  0
  -55.7660  -11.7637   12.7540 C   0  0  0  0  0  0  0  0  0  0  0  0
  -54.8034  -12.6306   13.5601 C   0  0  0  0  0  0  0  0  0  0  0  0
  -60.2987  -10.6282   15.4928 C   0  0  0  0  0  0  0  0  0  0  0  0
  -59.4419  -12.6793   12.8405 C   0  0  0  0  0  0  0  0  0  0  0  0
  -58.4245  -10.5235   13.1883 C   0  0  0  0  0  0  0  0  0  0  0  0
  -60.4254  -12.3905   13.9867 C   0  0  0  0  0  0  0  0  0  0  0  0
  -59.8935  -10.1659   13.1990 C   0  0  0  0  0  0  0  0  0  0  0  0
  -49.0059  -11.2648   12.4204 N   0  0  0  0  0  0  0  0  0  0  0  0
  -48.0351  -15.2467   12.0420 N   0  0  0  0  0  0  0  0  0  0  0  0
  -52.9563  -15.0981   12.9988 O   0  0  0  0  0  0  0  0  0  0  0  0
  -53.5566  -12.4592   13.1772 O   0  0  0  0  0  0  0  0  0  0  0  0
  -45.2543  -15.7958    9.6629 C   0  0  0  0  0  0  0  0  0  0  0  0
  -44.6766  -16.8939   10.2379 C   0  0  0  0  0  0  0  0  0  0  0  0
  -46.2912  -16.8999   12.0149 C   0  0  0  0  0  0  0  0  0  0  0  0
  -47.2960  -12.9358   12.0925 C   0  0  0  0  0  0  0  0  0  0  0  0
  -46.8813  -15.8024   11.4572 C   0  0  0  0  0  0  0  0  0  0  0  0
  -51.9431  -14.1324   12.8341 C   0  0  0  0  0  0  0  0  0  0  0  0
  -52.3175  -12.7851   12.9422 C   0  0  0  0  0  0  0  0  0  0  0  0
  -48.3065  -13.8634   12.2057 C   0  0  0  0  0  0  0  0  0  0  0  0
  -49.9995  -12.1901   12.5338 C   0  0  0  0  0  0  0  0  0  0  0  0
  -49.6368  -13.5129   12.4243 C   0  0  0  0  0  0  0  0  0  0  0  0
  -58.2253  -11.9428   13.1263 N   0  0  2  0  0  4  0  0  0  0  0  0
  -60.6437  -10.9883   14.1425 N   0  0  2  0  0  4  0  0  0  0  0  0
  -45.3325  -14.0463    7.9542 C   0  0  0  0  0  0  0  0  0  0  0  0
 22  1  1  0
 24  2  1  0
  2 36  1  0
 13  3  1  0
 34  3  1  6
  7  4  3  0
 25  5  1  0
 26  6  1  0
 27  7  1  0
 20  8  2  0
  8 27  1  0
  9 25  2  0
 26  9  1  0
 10 24  2  0
 28 10  1  0
 30 11  1  0
 11 32  2  0
 29 12  1  0
 12 33  2  0
 14 13  1  0
 23 14  1  0
 35 15  1  1
 16 18  1  0
 34 16  1  0
 17 19  1  0
 34 17  1  0
 18 35  1  0
 19 35  1  0
 32 20  1  0
 21 28  1  0
 31 21  1  0
 29 22  1  0
 30 23  1  0
 24 25  1  0
 28 26  2  0
 27 31  2  0
 29 30  2  0
 31 33  1  0
 32 33  1  0
M  CHG  2  34   1  35   1
M  END
$$$$
