
     RDKit          3D

 32 34  0  0  0  0  0  0  0  0999 V2000
  108.9462  -15.1893   -9.3818 C   0  0  2  0  0  0  0  0  0  0  0  0
  110.1589  -14.5006   -9.4137 O   0  0  0  0  0  0  0  0  0  0  0  0
  108.9114  -16.0031   -8.1387 C   0  0  2  0  0  0  0  0  0  0  0  0
  110.2704  -16.2848   -7.6512 N   0  0  0  0  0  4  0  0  0  0  0  0
  108.1023  -17.2472   -8.1917 C   0  0  0  0  0  0  0  0  0  0  0  0
  107.7324  -17.6799   -9.5898 C   0  0  2  0  0  0  0  0  0  0  0  0
  107.5579  -19.0450   -9.6282 O   0  0  0  0  0  0  0  0  0  0  0  0
  108.8358  -17.2265  -10.4980 C   0  0  2  0  0  0  0  0  0  0  0  0
  108.8078  -15.8598  -10.5574 O   0  0  0  0  0  0  0  0  0  0  0  0
  108.6925  -17.7644  -11.9032 C   0  0  0  0  0  0  0  0  0  0  0  0
  107.8023  -17.0061  -12.7225 N   0  0  0  0  0  4  0  0  0  0  0  0
  111.4514  -10.8534   -8.2495 C   0  0  2  0  0  0  0  0  0  0  0  0
  111.7184   -9.6301   -7.5473 N   0  0  0  0  0  4  0  0  0  0  0  0
  109.9334  -11.0490   -8.2161 C   0  0  0  0  0  0  0  0  0  0  0  0
  109.6238  -12.2676   -9.0285 C   0  0  2  0  0  0  0  0  0  0  0  0
  108.2061  -12.4756   -9.0724 N   0  0  0  0  0  4  0  0  0  0  0  0
  110.2408  -13.5183   -8.4092 C   0  0  2  0  0  0  0  0  0  0  0  0
  111.6874  -13.3553   -8.0819 C   0  0  2  0  0  0  0  0  0  0  0  0
  112.0101  -14.3140   -7.1087 O   0  0  0  0  0  0  0  0  0  0  0  0
  112.0434  -12.0082   -7.4901 C   0  0  1  0  0  0  0  0  0  0  0  0
  113.4292  -11.8835   -7.5282 O   0  0  0  0  0  0  0  0  0  0  0  0
  114.0255  -12.6737   -6.5518 C   0  0  2  0  0  0  0  0  0  0  0  0
  114.9004  -13.6727   -7.2074 C   0  0  2  0  0  0  0  0  0  0  0  0
  114.3669  -13.9112   -8.4998 O   0  0  0  0  0  0  0  0  0  0  0  0
  114.8731  -14.9638   -6.4362 C   0  0  1  0  0  0  0  0  0  0  0  0
  116.0048  -15.8021   -6.6922 N   0  0  0  0  0  4  0  0  0  0  0  0
  114.7331  -14.6414   -4.9740 C   0  0  2  0  0  0  0  0  0  0  0  0
  114.8710  -15.8001   -4.2459 O   0  0  0  0  0  0  0  0  0  0  0  0
  113.4432  -13.8999   -4.6834 C   0  0  2  0  0  0  0  0  0  0  0  0
  112.9897  -13.2115   -5.8009 O   0  0  0  0  0  0  0  0  0  0  0  0
  113.5668  -13.0041   -3.4752 C   0  0  0  0  0  0  0  0  0  0  0  0
  114.9201  -12.8883   -3.1615 O   0  0  0  0  0  0  0  0  0  0  0  0
  1  2  1  6
  1  3  1  0
  1  9  1  0
 17  2  1  6
  3  4  1  6
  3  5  1  0
  5  6  1  0
  6  7  1  1
  8  6  1  0
  9  8  1  0
  8 10  1  6
 10 11  1  0
 12 13  1  1
 14 12  1  0
 12 20  1  0
 15 14  1  0
 15 16  1  1
 15 17  1  0
 17 18  1  0
 18 19  1  1
 18 20  1  0
 20 21  1  6
 22 21  1  6
 22 23  1  0
 22 30  1  0
 23 24  1  6
 23 25  1  0
 25 26  1  1
 25 27  1  0
 27 28  1  1
 27 29  1  0
 29 30  1  0
 29 31  1  1
 31 32  1  0
M  CHG  5   4   1  11   1  13   1  16   1  26   1
M  END
$$$$
