
     RDKit          3D

 32 34  0  0  0  0  0  0  0  0999 V2000
  113.7187  -13.2074   -6.4564 C   0  0  2  0  0  0  0  0  0  0  0  0
  113.4287  -14.5554   -6.6685 O   0  0  0  0  0  0  0  0  0  0  0  0
  112.4561  -12.4367   -6.6002 C   0  0  2  0  0  0  0  0  0  0  0  0
  111.4823  -13.1641   -7.4289 N   0  0  0  0  0  4  0  0  0  0  0  0
  112.5942  -11.0317   -7.0605 C   0  0  0  0  0  0  0  0  0  0  0  0
  113.9458  -10.7088   -7.6502 C   0  0  2  0  0  0  0  0  0  0  0  0
  113.8274   -9.6860   -8.5641 O   0  0  0  0  0  0  0  0  0  0  0  0
  114.4655  -11.9679   -8.2768 C   0  0  2  0  0  0  0  0  0  0  0  0
  114.7458  -12.8598   -7.2779 O   0  0  0  0  0  0  0  0  0  0  0  0
  115.7271  -11.7426   -9.0782 C   0  0  0  0  0  0  0  0  0  0  0  0
  116.7221  -10.9878   -8.3862 N   0  0  0  0  0  4  0  0  0  0  0  0
  112.7053  -17.8344   -4.4206 C   0  0  2  0  0  0  0  0  0  0  0  0
  112.2751  -18.7673   -3.4178 N   0  0  0  0  0  4  0  0  0  0  0  0
  113.3399  -16.6583   -3.6737 C   0  0  0  0  0  0  0  0  0  0  0  0
  113.8848  -15.7189   -4.7039 C   0  0  2  0  0  0  0  0  0  0  0  0
  114.5353  -14.6154   -4.0603 N   0  0  0  0  0  4  0  0  0  0  0  0
  112.7703  -15.1384   -5.5698 C   0  0  2  0  0  0  0  0  0  0  0  0
  111.8544  -16.1805   -6.1189 C   0  0  2  0  0  0  0  0  0  0  0  0
  110.6461  -15.5475   -6.4503 O   0  0  0  0  0  0  0  0  0  0  0  0
  111.5062  -17.2811   -5.1396 C   0  0  1  0  0  0  0  0  0  0  0  0
  110.9205  -18.3178   -5.8608 O   0  0  0  0  0  0  0  0  0  0  0  0
  109.5550  -18.3883   -5.6079 C   0  0  2  0  0  0  0  0  0  0  0  0
  108.8973  -19.1258   -6.7110 C   0  0  2  0  0  0  0  0  0  0  0  0
  109.6919  -18.9386   -7.8708 O   0  0  0  0  0  0  0  0  0  0  0  0
  107.5326  -18.5498   -6.9717 C   0  0  1  0  0  0  0  0  0  0  0  0
  106.6564  -19.4525   -7.6548 N   0  0  0  0  0  4  0  0  0  0  0  0
  106.9533  -18.0882   -5.6629 C   0  0  2  0  0  0  0  0  0  0  0  0
  105.6456  -17.7111   -5.8615 O   0  0  0  0  0  0  0  0  0  0  0  0
  107.8001  -17.0048   -5.0249 C   0  0  2  0  0  0  0  0  0  0  0  0
  109.1220  -17.0800   -5.4436 O   0  0  0  0  0  0  0  0  0  0  0  0
  107.6793  -17.0061   -3.5206 C   0  0  0  0  0  0  0  0  0  0  0  0
  107.2626  -18.2756   -3.1232 O   0  0  0  0  0  0  0  0  0  0  0  0
  1  2  1  6
  1  3  1  0
  1  9  1  0
 17  2  1  6
  3  4  1  6
  3  5  1  0
  5  6  1  0
  6  7  1  6
  8  6  1  0
  9  8  1  0
  8 10  1  1
 10 11  1  0
 12 13  1  1
 14 12  1  0
 12 20  1  0
 15 14  1  0
 15 16  1  1
 15 17  1  0
 17 18  1  0
 18 19  1  1
 18 20  1  0
 20 21  1  6
 22 21  1  6
 22 23  1  0
 22 30  1  0
 23 24  1  6
 23 25  1  0
 25 26  1  1
 25 27  1  0
 27 28  1  6
 27 29  1  0
 29 30  1  0
 29 31  1  1
 31 32  1  0
M  CHG  5   4   1  11   1  13   1  16   1  26   1
M  END
$$$$
