
     RDKit          3D

 32 34  0  0  0  0  0  0  0  0999 V2000
  114.3208  -15.2382  -12.0449 C   0  0  2  0  0  0  0  0  0  0  0  0
  113.5476  -14.1867  -11.5525 O   0  0  0  0  0  0  0  0  0  0  0  0
  115.7500  -14.8410  -11.9535 C   0  0  2  0  0  0  0  0  0  0  0  0
  115.8931  -13.3770  -11.9334 N   0  0  0  0  0  4  0  0  0  0  0  0
  116.6642  -15.4460  -12.9551 C   0  0  0  0  0  0  0  0  0  0  0  0
  115.9565  -16.0864  -14.1245 C   0  0  2  0  0  0  0  0  0  0  0  0
  116.7691  -16.0628  -15.2356 O   0  0  0  0  0  0  0  0  0  0  0  0
  114.6834  -15.3244  -14.3404 C   0  0  2  0  0  0  0  0  0  0  0  0
  113.8537  -15.5666  -13.2797 O   0  0  0  0  0  0  0  0  0  0  0  0
  113.9659  -15.7344  -15.6059 C   0  0  0  0  0  0  0  0  0  0  0  0
  112.7063  -15.0875  -15.7894 N   0  0  0  0  0  4  0  0  0  0  0  0
  110.3967  -13.3003   -9.1830 C   0  0  2  0  0  0  0  0  0  0  0  0
  109.2543  -13.3379   -8.3144 N   0  0  0  0  0  4  0  0  0  0  0  0
  110.0965  -14.2633  -10.3346 C   0  0  0  0  0  0  0  0  0  0  0  0
  111.2325  -14.1651  -11.3044 C   0  0  2  0  0  0  0  0  0  0  0  0
  110.9840  -15.0143  -12.4323 N   0  0  0  0  0  4  0  0  0  0  0  0
  112.5419  -14.6304  -10.6736 C   0  0  2  0  0  0  0  0  0  0  0  0
  112.8122  -13.9934   -9.3517 C   0  0  2  0  0  0  0  0  0  0  0  0
  113.7157  -14.8181   -8.6633 O   0  0  0  0  0  0  0  0  0  0  0  0
  111.5930  -13.8603   -8.4644 C   0  0  1  0  0  0  0  0  0  0  0  0
  111.9185  -12.9903   -7.4277 O   0  0  0  0  0  0  0  0  0  0  0  0
  112.1144  -13.6857   -6.2396 C   0  0  2  0  0  0  0  0  0  0  0  0
  112.1944  -12.7178   -5.1215 C   0  0  2  0  0  0  0  0  0  0  0  0
  112.6793  -11.4980   -5.6587 O   0  0  0  0  0  0  0  0  0  0  0  0
  113.1740  -13.2055   -4.0895 C   0  0  1  0  0  0  0  0  0  0  0  0
  112.9778  -12.6189   -2.7986 N   0  0  0  0  0  4  0  0  0  0  0  0
  113.1044  -14.7069   -4.0399 C   0  0  2  0  0  0  0  0  0  0  0  0
  113.8723  -15.1551   -2.9905 O   0  0  0  0  0  0  0  0  0  0  0  0
  113.4816  -15.3308   -5.3690 C   0  0  2  0  0  0  0  0  0  0  0  0
  113.2533  -14.4570   -6.4238 O   0  0  0  0  0  0  0  0  0  0  0  0
  112.8061  -16.6640   -5.5789 C   0  0  0  0  0  0  0  0  0  0  0  0
  112.2512  -17.0617   -4.3635 O   0  0  0  0  0  0  0  0  0  0  0  0
  1  2  1  6
  1  3  1  0
  1  9  1  0
 17  2  1  6
  3  4  1  6
  3  5  1  0
  5  6  1  0
  6  7  1  6
  8  6  1  0
  9  8  1  0
  8 10  1  6
 10 11  1  0
 12 13  1  1
 14 12  1  0
 12 20  1  0
 15 14  1  0
 15 16  1  6
 15 17  1  0
 17 18  1  0
 18 19  1  1
 18 20  1  0
 20 21  1  1
 22 21  1  6
 22 23  1  0
 22 30  1  0
 23 24  1  6
 23 25  1  0
 25 26  1  1
 25 27  1  0
 27 28  1  1
 27 29  1  0
 29 30  1  0
 29 31  1  6
 31 32  1  0
M  CHG  5   4   1  11   1  13   1  16   1  26   1
M  END
$$$$
