
     RDKit          3D

 32 34  0  0  0  0  0  0  0  0999 V2000
  110.4631  -16.5517   -5.6918 C   0  0  2  0  0  0  0  0  0  0  0  0
  111.0873  -15.3092   -5.5790 O   0  0  0  0  0  0  0  0  0  0  0  0
  109.4419  -16.6532   -4.6168 C   0  0  2  0  0  0  0  0  0  0  0  0
  109.7633  -15.7586   -3.4940 N   0  0  0  0  0  4  0  0  0  0  0  0
  109.1370  -18.0222   -4.1289 C   0  0  0  0  0  0  0  0  0  0  0  0
  110.1533  -19.0605   -4.5387 C   0  0  2  0  0  0  0  0  0  0  0  0
  110.1783  -20.0827   -3.6168 O   0  0  0  0  0  0  0  0  0  0  0  0
  111.4768  -18.3641   -4.6449 C   0  0  2  0  0  0  0  0  0  0  0  0
  111.4277  -17.5108   -5.7133 O   0  0  0  0  0  0  0  0  0  0  0  0
  112.6251  -19.3236   -4.8577 C   0  0  0  0  0  0  0  0  0  0  0  0
  112.5316  -20.0745   -6.0685 N   0  0  0  0  0  4  0  0  0  0  0  0
  112.9179  -12.4003   -7.7039 C   0  0  2  0  0  0  0  0  0  0  0  0
  113.5913  -11.6212   -8.7042 N   0  0  0  0  0  4  0  0  0  0  0  0
  113.7098  -13.7030   -7.5643 C   0  0  0  0  0  0  0  0  0  0  0  0
  113.0822  -14.4885   -6.4554 C   0  0  2  0  0  0  0  0  0  0  0  0
  113.8131  -15.7039   -6.2463 N   0  0  0  0  0  4  0  0  0  0  0  0
  111.6479  -14.8817   -6.7971 C   0  0  2  0  0  0  0  0  0  0  0  0
  110.8241  -13.7316   -7.2712 C   0  0  2  0  0  0  0  0  0  0  0  0
  109.7474  -14.2573   -8.0024 O   0  0  0  0  0  0  0  0  0  0  0  0
  111.5529  -12.7865   -8.2025 C   0  0  1  0  0  0  0  0  0  0  0  0
  110.7896  -11.6273   -8.3093 O   0  0  0  0  0  0  0  0  0  0  0  0
  110.1075  -11.5924   -9.5205 C   0  0  2  0  0  0  0  0  0  0  0  0
  111.0880  -11.6555  -10.6286 C   0  0  2  0  0  0  0  0  0  0  0  0
  112.3000  -11.0987  -10.1462 O   0  0  0  0  0  0  0  0  0  0  0  0
  110.6093  -10.8222  -11.7856 C   0  0  1  0  0  0  0  0  0  0  0  0
  111.2115  -11.1835  -13.0330 N   0  0  0  0  0  4  0  0  0  0  0  0
  109.1088  -10.9045  -11.8423 C   0  0  2  0  0  0  0  0  0  0  0  0
  108.6704  -10.2832  -12.9884 O   0  0  0  0  0  0  0  0  0  0  0  0
  108.4684  -10.3589  -10.5813 C   0  0  2  0  0  0  0  0  0  0  0  0
  109.3306  -10.4427   -9.4960 O   0  0  0  0  0  0  0  0  0  0  0  0
  107.1350  -11.0071  -10.2993 C   0  0  0  0  0  0  0  0  0  0  0  0
  106.2221   -9.9988   -9.9939 O   0  0  0  0  0  0  0  0  0  0  0  0
  1  2  1  1
  1  3  1  0
  1  9  1  0
 17  2  1  1
  3  4  1  1
  3  5  1  0
  5  6  1  0
  6  7  1  1
  8  6  1  0
  9  8  1  0
  8 10  1  6
 10 11  1  0
 12 13  1  6
 14 12  1  0
 12 20  1  0
 15 14  1  0
 15 16  1  6
 15 17  1  0
 17 18  1  0
 18 19  1  6
 18 20  1  0
 20 21  1  1
 22 21  1  1
 22 23  1  0
 22 30  1  0
 23 24  1  1
 23 25  1  0
 25 26  1  6
 25 27  1  0
 27 28  1  6
 27 29  1  0
 29 30  1  0
 29 31  1  1
 31 32  1  0
M  CHG  5   4   1  11   1  13   1  16   1  26   1
M  END
$$$$
