
     RDKit          3D

 32 34  0  0  0  0  0  0  0  0999 V2000
  109.6995  -15.3328  -10.6396 C   0  0  2  0  0  0  0  0  0  0  0  0
  110.7262  -14.4033  -10.4720 O   0  0  0  0  0  0  0  0  0  0  0  0
  109.9644  -16.0908  -11.8902 C   0  0  2  0  0  0  0  0  0  0  0  0
  110.8165  -15.3188  -12.8078 N   0  0  0  0  0  4  0  0  0  0  0  0
  108.7731  -16.6227  -12.5995 C   0  0  0  0  0  0  0  0  0  0  0  0
  107.4670  -16.0172  -12.1453 C   0  0  2  0  0  0  0  0  0  0  0  0
  106.5493  -16.0564  -13.1708 O   0  0  0  0  0  0  0  0  0  0  0  0
  107.7610  -14.6145  -11.7047 C   0  0  2  0  0  0  0  0  0  0  0  0
  108.5126  -14.6725  -10.5628 O   0  0  0  0  0  0  0  0  0  0  0  0
  106.5087  -13.8222  -11.4074 C   0  0  0  0  0  0  0  0  0  0  0  0
  105.6250  -14.4647  -10.4883 N   0  0  0  0  0  4  0  0  0  0  0  0
  111.5603  -11.0975   -8.3032 C   0  0  2  0  0  0  0  0  0  0  0  0
  111.6452  -10.0789   -7.2950 N   0  0  0  0  0  4  0  0  0  0  0  0
  110.0705  -11.3932   -8.4951 C   0  0  0  0  0  0  0  0  0  0  0  0
  109.9536  -12.3818   -9.6130 C   0  0  2  0  0  0  0  0  0  0  0  0
  108.5717  -12.6633   -9.8706 N   0  0  0  0  0  4  0  0  0  0  0  0
  110.6209  -13.7064   -9.2539 C   0  0  2  0  0  0  0  0  0  0  0  0
  112.0083  -13.5387   -8.7313 C   0  0  2  0  0  0  0  0  0  0  0  0
  112.3231  -14.6907   -7.9937 O   0  0  0  0  0  0  0  0  0  0  0  0
  112.1805  -12.3668   -7.7885 C   0  0  1  0  0  0  0  0  0  0  0  0
  113.5463  -12.1468   -7.6340 O   0  0  0  0  0  0  0  0  0  0  0  0
  113.9980  -12.6619   -6.4239 C   0  0  2  0  0  0  0  0  0  0  0  0
  115.4748  -12.5615   -6.3779 C   0  0  2  0  0  0  0  0  0  0  0  0
  115.9383  -12.6011   -7.7177 O   0  0  0  0  0  0  0  0  0  0  0  0
  116.0469  -13.7419   -5.6419 C   0  0  1  0  0  0  0  0  0  0  0  0
  117.3667  -13.5113   -5.1377 N   0  0  0  0  0  4  0  0  0  0  0  0
  115.0891  -14.1311   -4.5497 C   0  0  2  0  0  0  0  0  0  0  0  0
  115.6730  -15.1006   -3.7682 O   0  0  0  0  0  0  0  0  0  0  0  0
  113.7397  -14.5406   -5.1057 C   0  0  2  0  0  0  0  0  0  0  0  0
  113.5001  -13.9548   -6.3418 O   0  0  0  0  0  0  0  0  0  0  0  0
  112.6221  -14.2781   -4.1261 C   0  0  0  0  0  0  0  0  0  0  0  0
  111.8070  -13.2811   -4.6597 O   0  0  0  0  0  0  0  0  0  0  0  0
  1  2  1  6
  1  3  1  0
  1  9  1  0
 17  2  1  6
  3  4  1  6
  3  5  1  0
  5  6  1  0
  6  7  1  6
  8  6  1  0
  9  8  1  0
  8 10  1  1
 10 11  1  0
 12 13  1  1
 14 12  1  0
 12 20  1  0
 15 14  1  0
 15 16  1  1
 15 17  1  0
 17 18  1  0
 18 19  1  1
 18 20  1  0
 20 21  1  6
 22 21  1  6
 22 23  1  0
 22 30  1  0
 23 24  1  6
 23 25  1  0
 25 26  1  1
 25 27  1  0
 27 28  1  6
 27 29  1  0
 29 30  1  0
 29 31  1  1
 31 32  1  0
M  CHG  5   4   1  11   1  13   1  16   1  26   1
M  END
$$$$
