
     RDKit          3D

 32 34  0  0  0  0  0  0  0  0999 V2000
  112.8512  -15.7210   -6.4175 C   0  0  2  0  0  0  0  0  0  0  0  0
  112.1076  -14.7256   -7.0518 O   0  0  0  0  0  0  0  0  0  0  0  0
  111.9380  -16.4778   -5.5219 C   0  0  2  0  0  0  0  0  0  0  0  0
  110.7702  -15.6657   -5.1466 N   0  0  0  0  0  4  0  0  0  0  0  0
  112.5584  -17.0945   -4.3220 C   0  0  0  0  0  0  0  0  0  0  0  0
  113.9368  -16.5674   -4.0041 C   0  0  2  0  0  0  0  0  0  0  0  0
  114.1826  -16.6794   -2.6541 O   0  0  0  0  0  0  0  0  0  0  0  0
  113.9822  -15.1429   -4.4695 C   0  0  2  0  0  0  0  0  0  0  0  0
  113.9340  -15.1370   -5.8369 O   0  0  0  0  0  0  0  0  0  0  0  0
  115.2419  -14.4282   -4.0371 C   0  0  0  0  0  0  0  0  0  0  0  0
  116.4084  -14.8312   -4.7551 N   0  0  0  0  0  4  0  0  0  0  0  0
  111.7080  -12.6734  -10.5097 C   0  0  2  0  0  0  0  0  0  0  0  0
  111.8757  -12.0985  -11.8144 N   0  0  0  0  0  4  0  0  0  0  0  0
  113.0247  -12.4440   -9.7632 C   0  0  0  0  0  0  0  0  0  0  0  0
  112.8378  -12.9478   -8.3661 C   0  0  2  0  0  0  0  0  0  0  0  0
  114.0285  -12.7162   -7.6022 N   0  0  0  0  0  4  0  0  0  0  0  0
  112.5803  -14.4518   -8.3488 C   0  0  2  0  0  0  0  0  0  0  0  0
  111.5073  -14.8716   -9.2968 C   0  0  2  0  0  0  0  0  0  0  0  0
  111.6926  -16.2368   -9.5656 O   0  0  0  0  0  0  0  0  0  0  0  0
  111.5465  -14.1632  -10.6340 C   0  0  1  0  0  0  0  0  0  0  0  0
  110.3387  -14.4129  -11.2794 O   0  0  0  0  0  0  0  0  0  0  0  0
  110.4987  -14.3831  -12.6604 C   0  0  2  0  0  0  0  0  0  0  0  0
  111.9228  -14.6256  -12.9865 C   0  0  2  0  0  0  0  0  0  0  0  0
  112.6875  -14.1742  -11.8805 O   0  0  0  0  0  0  0  0  0  0  0  0
  112.3164  -13.8226  -14.1958 C   0  0  1  0  0  0  0  0  0  0  0  0
  113.4795  -14.3286  -14.8594 N   0  0  0  0  0  4  0  0  0  0  0  0
  111.1328  -13.7438  -15.1202 C   0  0  2  0  0  0  0  0  0  0  0  0
  111.5255  -13.1548  -16.2994 O   0  0  0  0  0  0  0  0  0  0  0  0
  109.9545  -13.0500  -14.4660 C   0  0  2  0  0  0  0  0  0  0  0  0
  110.0062  -13.1561  -13.0823 O   0  0  0  0  0  0  0  0  0  0  0  0
  108.6365  -13.5285  -15.0240 C   0  0  0  0  0  0  0  0  0  0  0  0
  108.6556  -13.3303  -16.4037 O   0  0  0  0  0  0  0  0  0  0  0  0
  1  2  1  1
  1  3  1  0
  1  9  1  0
 17  2  1  1
  3  4  1  1
  3  5  1  0
  5  6  1  0
  6  7  1  1
  8  6  1  0
  9  8  1  0
  8 10  1  6
 10 11  1  0
 12 13  1  6
 14 12  1  0
 12 20  1  0
 15 14  1  0
 15 16  1  1
 15 17  1  0
 17 18  1  0
 18 19  1  6
 18 20  1  0
 20 21  1  1
 22 21  1  1
 22 23  1  0
 22 30  1  0
 23 24  1  1
 23 25  1  0
 25 26  1  6
 25 27  1  0
 27 28  1  6
 27 29  1  0
 29 30  1  0
 29 31  1  6
 31 32  1  0
M  CHG  5   4   1  11   1  13   1  16   1  26   1
M  END
$$$$
