
     RDKit          3D

 32 34  0  0  0  0  0  0  0  0999 V2000
  113.0077  -15.2287   -5.6657 C   0  0  2  0  0  0  0  0  0  0  0  0
  112.3275  -14.0136   -5.7494 O   0  0  0  0  0  0  0  0  0  0  0  0
  112.6149  -16.0576   -6.8351 C   0  0  2  0  0  0  0  0  0  0  0  0
  111.3064  -15.6424   -7.3638 N   0  0  0  0  0  4  0  0  0  0  0  0
  112.6620  -17.5291   -6.6414 C   0  0  0  0  0  0  0  0  0  0  0  0
  112.7547  -17.9555   -5.1963 C   0  0  2  0  0  0  0  0  0  0  0  0
  112.1964  -19.2039   -5.0382 O   0  0  0  0  0  0  0  0  0  0  0  0
  112.0466  -16.9138   -4.3830 C   0  0  2  0  0  0  0  0  0  0  0  0
  112.7790  -15.7592   -4.4340 O   0  0  0  0  0  0  0  0  0  0  0  0
  111.8910  -17.3121   -2.9333 C   0  0  0  0  0  0  0  0  0  0  0  0
  112.0161  -16.2219   -2.0197 N   0  0  0  0  0  4  0  0  0  0  0  0
  111.7799  -11.2126   -8.6100 C   0  0  2  0  0  0  0  0  0  0  0  0
  111.9394  -10.2072   -9.6222 N   0  0  0  0  0  4  0  0  0  0  0  0
  112.6446  -10.7747   -7.4250 C   0  0  0  0  0  0  0  0  0  0  0  0
  112.4157  -11.7579   -6.3197 C   0  0  2  0  0  0  0  0  0  0  0  0
  113.1674  -11.3716   -5.1618 N   0  0  0  0  0  4  0  0  0  0  0  0
  112.8870  -13.1548   -6.7138 C   0  0  2  0  0  0  0  0  0  0  0  0
  112.3634  -13.5955   -8.0397 C   0  0  2  0  0  0  0  0  0  0  0  0
  113.2128  -14.6078   -8.5130 O   0  0  0  0  0  0  0  0  0  0  0  0
  112.3576  -12.5125   -9.0974 C   0  0  1  0  0  0  0  0  0  0  0  0
  111.5741  -12.9615  -10.1567 O   0  0  0  0  0  0  0  0  0  0  0  0
  112.3435  -13.1435  -11.3005 C   0  0  2  0  0  0  0  0  0  0  0  0
  111.6174  -12.5855  -12.4644 C   0  0  2  0  0  0  0  0  0  0  0  0
  110.2325  -12.6597  -12.1677 O   0  0  0  0  0  0  0  0  0  0  0  0
  111.8872  -13.4202  -13.6862 C   0  0  1  0  0  0  0  0  0  0  0  0
  111.6398  -12.7266  -14.9137 N   0  0  0  0  0  4  0  0  0  0  0  0
  113.2977  -13.9360  -13.6077 C   0  0  2  0  0  0  0  0  0  0  0  0
  113.6106  -14.5625  -14.7915 O   0  0  0  0  0  0  0  0  0  0  0  0
  113.5076  -14.8142  -12.3901 C   0  0  2  0  0  0  0  0  0  0  0  0
  112.6089  -14.5035  -11.3781 O   0  0  0  0  0  0  0  0  0  0  0  0
  114.9380  -14.7813  -11.9100 C   0  0  0  0  0  0  0  0  0  0  0  0
  115.1184  -15.8400  -11.0212 O   0  0  0  0  0  0  0  0  0  0  0  0
  1  2  1  1
  1  3  1  0
  1  9  1  0
 17  2  1  1
  3  4  1  1
  3  5  1  0
  5  6  1  0
  6  7  1  6
  8  6  1  0
  9  8  1  0
  8 10  1  1
 10 11  1  0
 12 13  1  6
 14 12  1  0
 12 20  1  0
 15 14  1  0
 15 16  1  1
 15 17  1  0
 17 18  1  0
 18 19  1  6
 18 20  1  0
 20 21  1  6
 22 21  1  1
 22 23  1  0
 22 30  1  0
 23 24  1  1
 23 25  1  0
 25 26  1  6
 25 27  1  0
 27 28  1  6
 27 29  1  0
 29 30  1  0
 29 31  1  1
 31 32  1  0
M  CHG  5   4   1  11   1  13   1  16   1  26   1
M  END
$$$$
