
     RDKit          3D

 32 34  0  0  0  0  0  0  0  0999 V2000
  109.9832  -14.2038  -12.7165 C   0  0  2  0  0  0  0  0  0  0  0  0
  110.9080  -13.3904  -12.0615 O   0  0  0  0  0  0  0  0  0  0  0  0
  110.6854  -14.8970  -13.8279 C   0  0  2  0  0  0  0  0  0  0  0  0
  111.8809  -14.1496  -14.2477 N   0  0  0  0  0  4  0  0  0  0  0  0
  109.8536  -15.2630  -15.0023 C   0  0  0  0  0  0  0  0  0  0  0  0
  108.5145  -14.5676  -15.0469 C   0  0  2  0  0  0  0  0  0  0  0  0
  108.0901  -14.4491  -16.3512 O   0  0  0  0  0  0  0  0  0  0  0  0
  108.6889  -13.2327  -14.3869 C   0  0  2  0  0  0  0  0  0  0  0  0
  108.9088  -13.4398  -13.0524 O   0  0  0  0  0  0  0  0  0  0  0  0
  107.4737  -12.3462  -14.5344 C   0  0  0  0  0  0  0  0  0  0  0  0
  106.2355  -13.0270  -14.3291 N   0  0  0  0  0  4  0  0  0  0  0  0
  110.9950  -11.4695   -8.5075 C   0  0  2  0  0  0  0  0  0  0  0  0
  110.9075  -11.0980   -7.1236 N   0  0  0  0  0  4  0  0  0  0  0  0
  109.6540  -12.1138   -8.8683 C   0  0  0  0  0  0  0  0  0  0  0  0
  109.6868  -12.4190  -10.3334 C   0  0  2  0  0  0  0  0  0  0  0  0
  108.4339  -12.9843  -10.7406 N   0  0  0  0  0  4  0  0  0  0  0  0
  110.7684  -13.4442  -10.6621 C   0  0  2  0  0  0  0  0  0  0  0  0
  112.0984  -13.0965  -10.0820 C   0  0  2  0  0  0  0  0  0  0  0  0
  112.8486  -14.2805  -10.0081 O   0  0  0  0  0  0  0  0  0  0  0  0
  112.0374  -12.5401   -8.6755 C   0  0  1  0  0  0  0  0  0  0  0  0
  113.2793  -11.9807   -8.3888 O   0  0  0  0  0  0  0  0  0  0  0  0
  113.8522  -12.5880   -7.2769 C   0  0  2  0  0  0  0  0  0  0  0  0
  115.2723  -12.8895   -7.5698 C   0  0  2  0  0  0  0  0  0  0  0  0
  115.3815  -13.0643   -8.9731 O   0  0  0  0  0  0  0  0  0  0  0  0
  115.6736  -14.1740   -6.8980 C   0  0  1  0  0  0  0  0  0  0  0  0
  117.0879  -14.3038   -6.7198 N   0  0  0  0  0  4  0  0  0  0  0  0
  114.9316  -14.2808   -5.5943 C   0  0  2  0  0  0  0  0  0  0  0  0
  115.4095  -15.3651   -4.8960 O   0  0  0  0  0  0  0  0  0  0  0  0
  113.4306  -14.3158   -5.8035 C   0  0  2  0  0  0  0  0  0  0  0  0
  113.0687  -13.6978   -6.9932 O   0  0  0  0  0  0  0  0  0  0  0  0
  112.6823  -13.7530   -4.6199 C   0  0  0  0  0  0  0  0  0  0  0  0
  113.6173  -13.2282   -3.7291 O   0  0  0  0  0  0  0  0  0  0  0  0
  1  2  1  6
  1  3  1  0
  1  9  1  0
 17  2  1  6
  3  4  1  6
  3  5  1  0
  5  6  1  0
  6  7  1  6
  8  6  1  0
  9  8  1  0
  8 10  1  1
 10 11  1  0
 12 13  1  1
 14 12  1  0
 12 20  1  0
 15 14  1  0
 15 16  1  1
 15 17  1  0
 17 18  1  0
 18 19  1  1
 18 20  1  0
 20 21  1  6
 22 21  1  6
 22 23  1  0
 22 30  1  0
 23 24  1  6
 23 25  1  0
 25 26  1  1
 25 27  1  0
 27 28  1  6
 27 29  1  0
 29 30  1  0
 29 31  1  1
 31 32  1  0
M  CHG  5   4   1  11   1  13   1  16   1  26   1
M  END
$$$$
