
     RDKit          3D

 32 34  0  0  0  0  0  0  0  0999 V2000
  108.6045  -15.9573   -5.9379 C   0  0  2  0  0  0  0  0  0  0  0  0
  109.2067  -15.3727   -7.0521 O   0  0  0  0  0  0  0  0  0  0  0  0
  109.4672  -17.0790   -5.4837 C   0  0  2  0  0  0  0  0  0  0  0  0
  110.3095  -17.5783   -6.5816 N   0  0  0  0  0  4  0  0  0  0  0  0
  108.7774  -18.2005   -4.7970 C   0  0  0  0  0  0  0  0  0  0  0  0
  107.2788  -18.2026   -4.9781 C   0  0  2  0  0  0  0  0  0  0  0  0
  106.7958  -19.4881   -4.8813 O   0  0  0  0  0  0  0  0  0  0  0  0
  106.9959  -17.5932   -6.3185 C   0  0  2  0  0  0  0  0  0  0  0  0
  107.3196  -16.2650   -6.2625 O   0  0  0  0  0  0  0  0  0  0  0  0
  105.5426  -17.7099   -6.7171 C   0  0  0  0  0  0  0  0  0  0  0  0
  105.3275  -17.6739   -8.1282 N   0  0  0  0  0  4  0  0  0  0  0  0
  110.8411  -11.8411   -8.1407 C   0  0  2  0  0  0  0  0  0  0  0  0
  111.5124  -10.5729   -8.1853 N   0  0  0  0  0  4  0  0  0  0  0  0
  109.8654  -11.7731   -6.9630 C   0  0  0  0  0  0  0  0  0  0  0  0
  109.0834  -13.0494   -6.9588 C   0  0  2  0  0  0  0  0  0  0  0  0
  108.1166  -13.0239   -5.9006 N   0  0  0  0  0  4  0  0  0  0  0  0
  109.9878  -14.2531   -6.7099 C   0  0  2  0  0  0  0  0  0  0  0  0
  111.1870  -14.2760   -7.5974 C   0  0  2  0  0  0  0  0  0  0  0  0
  112.1539  -15.0839   -6.9788 O   0  0  0  0  0  0  0  0  0  0  0  0
  111.8314  -12.9224   -7.8075 C   0  0  1  0  0  0  0  0  0  0  0  0
  112.7178  -13.0380   -8.8745 O   0  0  0  0  0  0  0  0  0  0  0  0
  114.0346  -13.0382   -8.4277 C   0  0  2  0  0  0  0  0  0  0  0  0
  114.9085  -13.5639   -9.5017 C   0  0  2  0  0  0  0  0  0  0  0  0
  114.1196  -14.4387  -10.2916 O   0  0  0  0  0  0  0  0  0  0  0  0
  116.0395  -14.3540   -8.9026 C   0  0  1  0  0  0  0  0  0  0  0  0
  117.1627  -14.4918   -9.7792 N   0  0  0  0  0  4  0  0  0  0  0  0
  116.4232  -13.7184   -7.5947 C   0  0  2  0  0  0  0  0  0  0  0  0
  117.5588  -14.3300   -7.1171 O   0  0  0  0  0  0  0  0  0  0  0  0
  115.2741  -13.7302   -6.6061 C   0  0  2  0  0  0  0  0  0  0  0  0
  114.0467  -13.7782   -7.2537 O   0  0  0  0  0  0  0  0  0  0  0  0
  115.3573  -12.5822   -5.6299 C   0  0  0  0  0  0  0  0  0  0  0  0
  114.4704  -12.8397   -4.5858 O   0  0  0  0  0  0  0  0  0  0  0  0
  1  2  1  6
  1  3  1  0
  1  9  1  0
 17  2  1  6
  3  4  1  6
  3  5  1  0
  5  6  1  0
  6  7  1  6
  8  6  1  0
  9  8  1  0
  8 10  1  1
 10 11  1  0
 12 13  1  1
 14 12  1  0
 12 20  1  0
 15 14  1  0
 15 16  1  1
 15 17  1  0
 17 18  1  0
 18 19  1  1
 18 20  1  0
 20 21  1  6
 22 21  1  6
 22 23  1  0
 22 30  1  0
 23 24  1  6
 23 25  1  0
 25 26  1  6
 25 27  1  0
 27 28  1  1
 27 29  1  0
 29 30  1  0
 29 31  1  6
 31 32  1  0
M  CHG  5   4   1  11   1  13   1  16   1  26   1
M  END
$$$$
