
     RDKit          3D

 32 34  0  0  0  0  0  0  0  0999 V2000
  107.2206  -14.1752   -8.3697 C   0  0  2  0  0  0  0  0  0  0  0  0
  108.5095  -14.6921   -8.5025 O   0  0  0  0  0  0  0  0  0  0  0  0
  106.5430  -14.9055   -7.2669 C   0  0  2  0  0  0  0  0  0  0  0  0
  107.1504  -16.2286   -7.0553 N   0  0  0  0  0  4  0  0  0  0  0  0
  105.0651  -15.0136   -7.3627 C   0  0  0  0  0  0  0  0  0  0  0  0
  104.5125  -14.6827   -8.7279 C   0  0  2  0  0  0  0  0  0  0  0  0
  103.3289  -15.3559   -8.9314 O   0  0  0  0  0  0  0  0  0  0  0  0
  105.5587  -15.0651   -9.7315 C   0  0  2  0  0  0  0  0  0  0  0  0
  106.6202  -14.2134   -9.5899 O   0  0  0  0  0  0  0  0  0  0  0  0
  105.0625  -14.9703  -11.1560 C   0  0  0  0  0  0  0  0  0  0  0  0
  104.5847  -13.6735  -11.5146 N   0  0  0  0  0  4  0  0  0  0  0  0
  112.1922  -13.1532   -9.1331 C   0  0  2  0  0  0  0  0  0  0  0  0
  113.3946  -12.3691   -9.1166 N   0  0  0  0  0  4  0  0  0  0  0  0
  111.0345  -12.1665   -9.3054 C   0  0  0  0  0  0  0  0  0  0  0  0
  109.7780  -12.9713   -9.4250 C   0  0  2  0  0  0  0  0  0  0  0  0
  108.6600  -12.0991   -9.6358 N   0  0  0  0  0  4  0  0  0  0  0  0
  109.4985  -13.7562   -8.1466 C   0  0  2  0  0  0  0  0  0  0  0  0
  110.6783  -14.5354   -7.6698 C   0  0  2  0  0  0  0  0  0  0  0  0
  110.4905  -14.7904   -6.3024 O   0  0  0  0  0  0  0  0  0  0  0  0
  111.9977  -13.8032   -7.7912 C   0  0  1  0  0  0  0  0  0  0  0  0
  113.0157  -14.7356   -7.6129 O   0  0  0  0  0  0  0  0  0  0  0  0
  113.6552  -14.5446   -6.3930 C   0  0  2  0  0  0  0  0  0  0  0  0
  115.0342  -14.0647   -6.6410 C   0  0  2  0  0  0  0  0  0  0  0  0
  115.4274  -14.5609   -7.9101 O   0  0  0  0  0  0  0  0  0  0  0  0
  115.9669  -14.6241   -5.6020 C   0  0  1  0  0  0  0  0  0  0  0  0
  117.1777  -13.8733   -5.4629 N   0  0  0  0  0  4  0  0  0  0  0  0
  115.2204  -14.7310   -4.3009 C   0  0  2  0  0  0  0  0  0  0  0  0
  116.1032  -15.0852   -3.3074 O   0  0  0  0  0  0  0  0  0  0  0  0
  114.0328  -15.6666   -4.4101 C   0  0  2  0  0  0  0  0  0  0  0  0
  113.5730  -15.7541   -5.7175 O   0  0  0  0  0  0  0  0  0  0  0  0
  112.9332  -15.2984   -3.4442 C   0  0  0  0  0  0  0  0  0  0  0  0
  111.8582  -16.1572   -3.6676 O   0  0  0  0  0  0  0  0  0  0  0  0
  1  2  1  6
  1  3  1  0
  1  9  1  0
 17  2  1  6
  3  4  1  6
  3  5  1  0
  5  6  1  0
  6  7  1  6
  8  6  1  0
  9  8  1  0
  8 10  1  6
 10 11  1  0
 12 13  1  1
 14 12  1  0
 12 20  1  0
 15 14  1  0
 15 16  1  1
 15 17  1  0
 17 18  1  0
 18 19  1  1
 18 20  1  0
 20 21  1  6
 22 21  1  6
 22 23  1  0
 22 30  1  0
 23 24  1  6
 23 25  1  0
 25 26  1  1
 25 27  1  0
 27 28  1  1
 27 29  1  0
 29 30  1  0
 29 31  1  1
 31 32  1  0
M  CHG  5   4   1  11   1  13   1  16   1  26   1
M  END
$$$$
