
     RDKit          3D

 32 34  0  0  0  0  0  0  0  0999 V2000
  114.2224  -14.1945   -6.7169 C   0  0  2  0  0  0  0  0  0  0  0  0
  113.1490  -13.4327   -7.1790 O   0  0  0  0  0  0  0  0  0  0  0  0
  113.7638  -15.6017   -6.5814 C   0  0  2  0  0  0  0  0  0  0  0  0
  112.3037  -15.6698   -6.4153 N   0  0  0  0  0  4  0  0  0  0  0  0
  114.4502  -16.4186   -5.5486 C   0  0  0  0  0  0  0  0  0  0  0  0
  115.2526  -15.6091   -4.5588 C   0  0  2  0  0  0  0  0  0  0  0  0
  115.3323  -16.2793   -3.3589 O   0  0  0  0  0  0  0  0  0  0  0  0
  114.5702  -14.2814   -4.4191 C   0  0  2  0  0  0  0  0  0  0  0  0
  114.7140  -13.5995   -5.5967 O   0  0  0  0  0  0  0  0  0  0  0  0
  115.1559  -13.4387   -3.3095 C   0  0  0  0  0  0  0  0  0  0  0  0
  115.0319  -12.0330   -3.5269 N   0  0  0  0  0  4  0  0  0  0  0  0
  111.5247  -13.0760  -10.8617 C   0  0  2  0  0  0  0  0  0  0  0  0
  110.9189  -13.3012  -12.1436 N   0  0  0  0  0  4  0  0  0  0  0  0
  112.6932  -14.0594  -10.7564 C   0  0  0  0  0  0  0  0  0  0  0  0
  113.4004  -13.7739   -9.4684 C   0  0  2  0  0  0  0  0  0  0  0  0
  114.5372  -14.6373   -9.3360 N   0  0  0  0  0  4  0  0  0  0  0  0
  112.4954  -14.0381   -8.2685 C   0  0  2  0  0  0  0  0  0  0  0  0
  111.1601  -13.3834   -8.3887 C   0  0  2  0  0  0  0  0  0  0  0  0
  110.2776  -14.0663   -7.5371 O   0  0  0  0  0  0  0  0  0  0  0  0
  110.5560  -13.4522   -9.7750 C   0  0  1  0  0  0  0  0  0  0  0  0
  109.4924  -12.5553   -9.8169 O   0  0  0  0  0  0  0  0  0  0  0  0
  108.2845  -13.2074   -9.5947 C   0  0  2  0  0  0  0  0  0  0  0  0
  107.2109  -12.4973  -10.3270 C   0  0  2  0  0  0  0  0  0  0  0  0
  107.6096  -11.1410  -10.4415 O   0  0  0  0  0  0  0  0  0  0  0  0
  105.9302  -12.5514   -9.5401 C   0  0  1  0  0  0  0  0  0  0  0  0
  104.7632  -12.3295  -10.3388 N   0  0  0  0  0  4  0  0  0  0  0  0
  105.8724  -13.8682   -8.8159 C   0  0  2  0  0  0  0  0  0  0  0  0
  104.6370  -13.9994   -8.2256 O   0  0  0  0  0  0  0  0  0  0  0  0
  107.0228  -14.0241   -7.8412 C   0  0  2  0  0  0  0  0  0  0  0  0
  108.1161  -13.2552   -8.2180 O   0  0  0  0  0  0  0  0  0  0  0  0
  107.3918  -15.4721   -7.6302 C   0  0  0  0  0  0  0  0  0  0  0  0
  106.5152  -16.2537   -8.3810 O   0  0  0  0  0  0  0  0  0  0  0  0
  1  2  1  1
  1  3  1  0
  1  9  1  0
 17  2  1  1
  3  4  1  1
  3  5  1  0
  5  6  1  0
  6  7  1  1
  8  6  1  0
  9  8  1  0
  8 10  1  1
 10 11  1  0
 12 13  1  6
 14 12  1  0
 12 20  1  0
 15 14  1  0
 15 16  1  1
 15 17  1  0
 17 18  1  0
 18 19  1  1
 18 20  1  0
 20 21  1  1
 22 21  1  1
 22 23  1  0
 22 30  1  0
 23 24  1  1
 23 25  1  0
 25 26  1  6
 25 27  1  0
 27 28  1  1
 27 29  1  0
 29 30  1  0
 29 31  1  6
 31 32  1  0
M  CHG  5   4   1  11   1  13   1  16   1  26   1
M  END
$$$$
