
     RDKit          3D

 32 34  0  0  0  0  0  0  0  0999 V2000
  107.2809  -14.0620   -8.6446 C   0  0  2  0  0  0  0  0  0  0  0  0
  108.6071  -13.8842   -9.0391 O   0  0  0  0  0  0  0  0  0  0  0  0
  106.7890  -15.3308   -9.2420 C   0  0  2  0  0  0  0  0  0  0  0  0
  107.5661  -15.6898  -10.4385 N   0  0  0  0  0  4  0  0  0  0  0  0
  105.3319  -15.4039   -9.5187 C   0  0  0  0  0  0  0  0  0  0  0  0
  104.6329  -14.0663   -9.4861 C   0  0  2  0  0  0  0  0  0  0  0  0
  103.5260  -14.0947  -10.3040 O   0  0  0  0  0  0  0  0  0  0  0  0
  105.6311  -13.0365   -9.9232 C   0  0  2  0  0  0  0  0  0  0  0  0
  106.5909  -12.9311   -8.9537 O   0  0  0  0  0  0  0  0  0  0  0  0
  105.0114  -11.6730  -10.1261 C   0  0  0  0  0  0  0  0  0  0  0  0
  103.7892  -11.6996  -10.8638 N   0  0  0  0  0  4  0  0  0  0  0  0
  111.7797  -11.5427   -8.1557 C   0  0  2  0  0  0  0  0  0  0  0  0
  112.7615  -10.7111   -7.5189 N   0  0  0  0  0  4  0  0  0  0  0  0
  110.4136  -10.9544   -7.7934 C   0  0  0  0  0  0  0  0  0  0  0  0
  109.3785  -11.7475   -8.5284 C   0  0  2  0  0  0  0  0  0  0  0  0
  108.0758  -11.2108   -8.2634 N   0  0  0  0  0  4  0  0  0  0  0  0
  109.3652  -13.2025   -8.0688 C   0  0  2  0  0  0  0  0  0  0  0  0
  110.7207  -13.8260   -8.0639 C   0  0  2  0  0  0  0  0  0  0  0  0
  110.6760  -14.9254   -7.1924 O   0  0  0  0  0  0  0  0  0  0  0  0
  111.8204  -12.9197   -7.5532 C   0  0  1  0  0  0  0  0  0  0  0  0
  113.0385  -13.5020   -7.8919 O   0  0  0  0  0  0  0  0  0  0  0  0
  113.8006  -13.7542   -6.7565 C   0  0  2  0  0  0  0  0  0  0  0  0
  114.8791  -14.7087   -7.1014 C   0  0  2  0  0  0  0  0  0  0  0  0
  114.4121  -15.4922   -8.1875 O   0  0  0  0  0  0  0  0  0  0  0  0
  115.1478  -15.6223   -5.9372 C   0  0  1  0  0  0  0  0  0  0  0  0
  116.4404  -16.2356   -5.9833 N   0  0  0  0  0  4  0  0  0  0  0  0
  114.9401  -14.8461   -4.6659 C   0  0  2  0  0  0  0  0  0  0  0  0
  115.3395  -15.6189   -3.6005 O   0  0  0  0  0  0  0  0  0  0  0  0
  113.5157  -14.3427   -4.5416 C   0  0  2  0  0  0  0  0  0  0  0  0
  112.9157  -14.2024   -5.7860 O   0  0  0  0  0  0  0  0  0  0  0  0
  113.4337  -13.0763   -3.7249 C   0  0  0  0  0  0  0  0  0  0  0  0
  112.3979  -12.2982   -4.2396 O   0  0  0  0  0  0  0  0  0  0  0  0
  1  2  1  6
  1  3  1  0
  1  9  1  0
 17  2  1  6
  3  4  1  6
  3  5  1  0
  5  6  1  0
  6  7  1  6
  8  6  1  0
  9  8  1  0
  8 10  1  1
 10 11  1  0
 12 13  1  1
 14 12  1  0
 12 20  1  0
 15 14  1  0
 15 16  1  1
 15 17  1  0
 17 18  1  0
 18 19  1  1
 18 20  1  0
 20 21  1  6
 22 21  1  6
 22 23  1  0
 22 30  1  0
 23 24  1  6
 23 25  1  0
 25 26  1  6
 25 27  1  0
 27 28  1  1
 27 29  1  0
 29 30  1  0
 29 31  1  6
 31 32  1  0
M  CHG  5   4   1  11   1  13   1  16   1  26   1
M  END
$$$$
