
     RDKit          3D

 32 34  0  0  0  0  0  0  0  0999 V2000
  107.0730  -13.4462   -7.8981 C   0  0  2  0  0  0  0  0  0  0  0  0
  107.9305  -14.5382   -7.7631 O   0  0  0  0  0  0  0  0  0  0  0  0
  105.6756  -13.9444   -7.8099 C   0  0  2  0  0  0  0  0  0  0  0  0
  105.5967  -15.3684   -8.1707 N   0  0  0  0  0  4  0  0  0  0  0  0
  104.6514  -13.1577   -8.5429 C   0  0  0  0  0  0  0  0  0  0  0  0
  105.2250  -12.1888   -9.5483 C   0  0  2  0  0  0  0  0  0  0  0  0
  104.3187  -11.9722  -10.5618 O   0  0  0  0  0  0  0  0  0  0  0  0
  106.5048  -12.7841  -10.0538 C   0  0  2  0  0  0  0  0  0  0  0  0
  107.4144  -12.7760   -9.0317 O   0  0  0  0  0  0  0  0  0  0  0  0
  107.0893  -12.0112  -11.2137 C   0  0  0  0  0  0  0  0  0  0  0  0
  108.4988  -12.1799  -11.3667 N   0  0  0  0  0  4  0  0  0  0  0  0
  111.5860  -15.9204   -8.7905 C   0  0  2  0  0  0  0  0  0  0  0  0
  112.9244  -16.0835   -9.2832 N   0  0  0  0  0  4  0  0  0  0  0  0
  110.7756  -15.3056   -9.9346 C   0  0  0  0  0  0  0  0  0  0  0  0
  109.3534  -15.2187   -9.4759 C   0  0  2  0  0  0  0  0  0  0  0  0
  108.5346  -14.6908  -10.5276 N   0  0  0  0  0  4  0  0  0  0  0  0
  109.2120  -14.2773   -8.2832 C   0  0  2  0  0  0  0  0  0  0  0  0
  110.1877  -14.5664   -7.1920 C   0  0  2  0  0  0  0  0  0  0  0  0
  110.3130  -13.4016   -6.4189 O   0  0  0  0  0  0  0  0  0  0  0  0
  111.5799  -14.9097   -7.6773 C   0  0  1  0  0  0  0  0  0  0  0  0
  112.2804  -15.4492   -6.6021 O   0  0  0  0  0  0  0  0  0  0  0  0
  113.0984  -14.4917   -6.0124 C   0  0  2  0  0  0  0  0  0  0  0  0
  114.2961  -14.2918   -6.8603 C   0  0  2  0  0  0  0  0  0  0  0  0
  114.5195  -15.5049   -7.5604 O   0  0  0  0  0  0  0  0  0  0  0  0
  115.4957  -14.0135   -5.9967 C   0  0  1  0  0  0  0  0  0  0  0  0
  116.5574  -13.3546   -6.6951 N   0  0  0  0  0  4  0  0  0  0  0  0
  115.0447  -13.2311   -4.7942 C   0  0  2  0  0  0  0  0  0  0  0  0
  116.1508  -12.8300   -4.0818 O   0  0  0  0  0  0  0  0  0  0  0  0
  114.0440  -14.0078   -3.9617 C   0  0  2  0  0  0  0  0  0  0  0  0
  113.3642  -14.9454   -4.7280 O   0  0  0  0  0  0  0  0  0  0  0  0
  113.1033  -13.0955   -3.2132 C   0  0  0  0  0  0  0  0  0  0  0  0
  112.5109  -12.2360   -4.1370 O   0  0  0  0  0  0  0  0  0  0  0  0
  1  2  1  6
  1  3  1  0
  1  9  1  0
 17  2  1  1
  3  4  1  6
  3  5  1  0
  5  6  1  0
  6  7  1  6
  8  6  1  0
  9  8  1  0
  8 10  1  6
 10 11  1  0
 12 13  1  6
 14 12  1  0
 12 20  1  0
 15 14  1  0
 15 16  1  6
 15 17  1  0
 17 18  1  0
 18 19  1  1
 18 20  1  0
 20 21  1  1
 22 21  1  6
 22 23  1  0
 22 30  1  0
 23 24  1  1
 23 25  1  0
 25 26  1  6
 25 27  1  0
 27 28  1  1
 27 29  1  0
 29 30  1  0
 29 31  1  6
 31 32  1  0
M  CHG  5   4   1  11   1  13   1  16   1  26   1
M  END
$$$$
