
     RDKit          3D

 32 34  0  0  0  0  0  0  0  0999 V2000
  114.3558  -14.2643  -11.3375 C   0  0  2  0  0  0  0  0  0  0  0  0
  114.4111  -14.7645  -10.0364 O   0  0  0  0  0  0  0  0  0  0  0  0
  112.9679  -14.4394  -11.8395 C   0  0  2  0  0  0  0  0  0  0  0  0
  112.2761  -15.5199  -11.1198 N   0  0  0  0  0  4  0  0  0  0  0  0
  112.8174  -14.6037  -13.3077 C   0  0  0  0  0  0  0  0  0  0  0  0
  114.1065  -14.9238  -14.0250 C   0  0  2  0  0  0  0  0  0  0  0  0
  113.8410  -15.6371  -15.1722 O   0  0  0  0  0  0  0  0  0  0  0  0
  114.9643  -15.6949  -13.0672 C   0  0  2  0  0  0  0  0  0  0  0  0
  115.3476  -14.8513  -12.0604 O   0  0  0  0  0  0  0  0  0  0  0  0
  116.2096  -16.2518  -13.7180 C   0  0  0  0  0  0  0  0  0  0  0  0
  117.1891  -15.2608  -14.0297 N   0  0  0  0  0  4  0  0  0  0  0  0
  113.3272  -13.9494   -6.2300 C   0  0  2  0  0  0  0  0  0  0  0  0
  112.9419  -13.3259   -4.9956 N   0  0  0  0  0  4  0  0  0  0  0  0
  114.5515  -13.1834   -6.7381 C   0  0  0  0  0  0  0  0  0  0  0  0
  115.0303  -13.8792   -7.9739 C   0  0  2  0  0  0  0  0  0  0  0  0
  116.2084  -13.2312   -8.4713 N   0  0  0  0  0  4  0  0  0  0  0  0
  113.9847  -13.8204   -9.0838 C   0  0  2  0  0  0  0  0  0  0  0  0
  112.6281  -14.2464   -8.6314 C   0  0  2  0  0  0  0  0  0  0  0  0
  111.6945  -13.6996   -9.5256 O   0  0  0  0  0  0  0  0  0  0  0  0
  112.2459  -13.7460   -7.2548 C   0  0  1  0  0  0  0  0  0  0  0  0
  111.1232  -14.4588   -6.8433 O   0  0  0  0  0  0  0  0  0  0  0  0
  109.9760  -13.6797   -6.9457 C   0  0  2  0  0  0  0  0  0  0  0  0
  108.8089  -14.5655   -7.1613 C   0  0  2  0  0  0  0  0  0  0  0  0
  109.2854  -15.7349   -7.8072 O   0  0  0  0  0  0  0  0  0  0  0  0
  107.8147  -13.8933   -8.0680 C   0  0  1  0  0  0  0  0  0  0  0  0
  106.4924  -14.4304   -7.9582 N   0  0  0  0  0  4  0  0  0  0  0  0
  107.8444  -12.4150   -7.7933 C   0  0  2  0  0  0  0  0  0  0  0  0
  106.8286  -11.8097   -8.4958 O   0  0  0  0  0  0  0  0  0  0  0  0
  109.2087  -11.8183   -8.0771 C   0  0  2  0  0  0  0  0  0  0  0  0
  110.2131  -12.7711   -7.9675 O   0  0  0  0  0  0  0  0  0  0  0  0
  109.4822  -10.6035   -7.2245 C   0  0  0  0  0  0  0  0  0  0  0  0
  108.3207  -10.3063   -6.5131 O   0  0  0  0  0  0  0  0  0  0  0  0
  1  2  1  1
  1  3  1  0
  1  9  1  0
 17  2  1  6
  3  4  1  1
  3  5  1  0
  5  6  1  0
  6  7  1  6
  8  6  1  0
  9  8  1  0
  8 10  1  6
 10 11  1  0
 12 13  1  1
 14 12  1  0
 12 20  1  0
 15 14  1  0
 15 16  1  6
 15 17  1  0
 17 18  1  0
 18 19  1  6
 18 20  1  0
 20 21  1  1
 22 21  1  6
 22 23  1  0
 22 30  1  0
 23 24  1  6
 23 25  1  0
 25 26  1  1
 25 27  1  0
 27 28  1  6
 27 29  1  0
 29 30  1  0
 29 31  1  1
 31 32  1  0
M  CHG  5   4   1  11   1  13   1  16   1  26   1
M  END
$$$$
