
     RDKit          3D

 32 34  0  0  0  0  0  0  0  0999 V2000
  112.6514  -15.5040   -6.8008 C   0  0  2  0  0  0  0  0  0  0  0  0
  112.0594  -14.2414   -6.7625 O   0  0  0  0  0  0  0  0  0  0  0  0
  111.6286  -16.4783   -7.2627 C   0  0  2  0  0  0  0  0  0  0  0  0
  110.2683  -15.9846   -6.9978 N   0  0  0  0  0  4  0  0  0  0  0  0
  111.7862  -17.8734   -6.7792 C   0  0  0  0  0  0  0  0  0  0  0  0
  112.7411  -18.0169   -5.6189 C   0  0  2  0  0  0  0  0  0  0  0  0
  112.3967  -19.1126   -4.8598 O   0  0  0  0  0  0  0  0  0  0  0  0
  112.6739  -16.7422   -4.8324 C   0  0  2  0  0  0  0  0  0  0  0  0
  113.2217  -15.7423   -5.5889 O   0  0  0  0  0  0  0  0  0  0  0  0
  113.4347  -16.8206   -3.5288 C   0  0  0  0  0  0  0  0  0  0  0  0
  114.1369  -15.6220   -3.1986 N   0  0  0  0  0  4  0  0  0  0  0  0
  111.9488  -10.6497   -8.6107 C   0  0  2  0  0  0  0  0  0  0  0  0
  112.1995   -9.4971   -9.4289 N   0  0  0  0  0  4  0  0  0  0  0  0
  113.2742  -10.9896   -7.9240 C   0  0  0  0  0  0  0  0  0  0  0  0
  113.0116  -12.1287   -6.9891 C   0  0  2  0  0  0  0  0  0  0  0  0
  114.2120  -12.4625   -6.2800 N   0  0  0  0  0  4  0  0  0  0  0  0
  112.5772  -13.3797   -7.7474 C   0  0  2  0  0  0  0  0  0  0  0  0
  111.4736  -13.1208   -8.7177 C   0  0  2  0  0  0  0  0  0  0  0  0
  111.4988  -14.1519   -9.6698 O   0  0  0  0  0  0  0  0  0  0  0  0
  111.6130  -11.8246   -9.4870 C   0  0  1  0  0  0  0  0  0  0  0  0
  110.3921  -11.5666  -10.1038 O   0  0  0  0  0  0  0  0  0  0  0  0
  110.3142  -12.2055  -11.3364 C   0  0  2  0  0  0  0  0  0  0  0  0
  109.0795  -11.7699  -12.0285 C   0  0  2  0  0  0  0  0  0  0  0  0
  108.1424  -11.4123  -11.0258 O   0  0  0  0  0  0  0  0  0  0  0  0
  108.5093  -12.9099  -12.8271 C   0  0  1  0  0  0  0  0  0  0  0  0
  107.6294  -12.4859  -13.8735 N   0  0  0  0  0  4  0  0  0  0  0  0
  109.6487  -13.7384  -13.3535 C   0  0  2  0  0  0  0  0  0  0  0  0
  109.1503  -14.6854  -14.2176 O   0  0  0  0  0  0  0  0  0  0  0  0
  110.4797  -14.3281  -12.2312 C   0  0  2  0  0  0  0  0  0  0  0  0
  110.3846  -13.5664  -11.0740 O   0  0  0  0  0  0  0  0  0  0  0  0
  111.9127  -14.5529  -12.6477 C   0  0  0  0  0  0  0  0  0  0  0  0
  112.0770  -14.0253  -13.9275 O   0  0  0  0  0  0  0  0  0  0  0  0
  1  2  1  1
  1  3  1  0
  1  9  1  0
 17  2  1  1
  3  4  1  1
  3  5  1  0
  5  6  1  0
  6  7  1  1
  8  6  1  0
  9  8  1  0
  8 10  1  1
 10 11  1  0
 12 13  1  6
 14 12  1  0
 12 20  1  0
 15 14  1  0
 15 16  1  6
 15 17  1  0
 17 18  1  0
 18 19  1  6
 18 20  1  0
 20 21  1  1
 22 21  1  1
 22 23  1  0
 22 30  1  0
 23 24  1  1
 23 25  1  0
 25 26  1  6
 25 27  1  0
 27 28  1  1
 27 29  1  0
 29 30  1  0
 29 31  1  6
 31 32  1  0
M  CHG  5   4   1  11   1  13   1  16   1  26   1
M  END
$$$$
