
     RDKit          3D

 35 37  0  0  0  0  0  0  0  0999 V2000
   88.8535   50.9106  -38.5089 O   0  0  0  0  0  0  0  0  0  0  0  0
   84.2262   45.7434  -34.6155 C   0  0  0  0  0  0  0  0  0  0  0  0
   85.2487   46.6826  -36.6953 C   0  0  2  0  0  0  0  0  0  0  0  0
   91.1845   50.0745  -39.6414 O   0  0  0  0  0  0  0  0  0  0  0  0
   85.3960   48.1675  -36.4884 C   0  0  1  0  0  0  0  0  0  0  0  0
   80.2842   45.2470  -36.6016 N   0  0  0  0  0  0  0  0  0  0  0  0
   86.8791   48.3687  -36.7152 C   0  0  1  0  0  0  0  0  0  0  0  0
   87.4438   47.0259  -36.4273 C   0  0  1  0  0  0  0  0  0  0  0  0
   82.2691   46.0791  -37.4654 N   0  0  0  0  0  0  0  0  0  0  0  0
   88.0071   47.0249  -35.0203 C   0  0  0  0  0  0  0  0  0  0  0  0
   88.9648   48.5242  -39.9554 O   0  0  0  0  0  0  0  0  0  0  0  0
   90.1607   48.7764  -37.6643 O   0  0  0  0  0  0  0  0  0  0  0  0
   83.0247   45.2779  -34.2144 N   0  0  0  0  0  0  0  0  0  0  0  0
   86.3556   50.9769  -39.2330 O   0  0  0  0  0  0  0  0  0  0  0  0
   86.9957   46.7785  -34.0848 O   0  0  0  0  0  0  0  0  0  0  0  0
   84.1654   46.1285  -35.9034 N   0  0  0  0  0  0  0  0  0  0  0  0
   80.0751   44.4810  -34.3385 N   0  0  0  0  0  0  0  0  0  0  0  0
   80.8366   45.0260  -35.3928 C   0  0  0  0  0  0  0  0  0  0  0  0
   84.6840   48.8682  -37.4386 O   0  0  0  0  0  0  0  0  0  0  0  0
   80.9718   45.7645  -37.6351 C   0  0  0  0  0  0  0  0  0  0  0  0
   82.8970   45.8906  -36.2924 C   0  0  0  0  0  0  0  0  0  0  0  0
   82.1707   45.3578  -35.2452 C   0  0  0  0  0  0  0  0  0  0  0  0
   87.1459   48.8677  -37.9642 O   0  0  0  0  0  0  0  0  0  0  0  0
   88.3311   47.3854  -29.7826 O   0  0  0  0  0  0  0  0  0  0  0  0
   90.8914   47.1515  -30.8879 O   0  0  0  0  0  0  0  0  0  0  0  0
   89.6546   45.1708  -29.7795 O   0  0  0  0  0  0  0  0  0  0  0  0
   88.0355   48.4519  -32.3834 O   0  0  0  0  0  0  0  0  0  0  0  0
   86.2432   46.7704  -31.4378 O   0  0  0  0  0  0  0  0  0  0  0  0
   86.4532   46.0874  -36.4888 O   0  0  0  0  0  0  0  0  0  0  0  0
   86.8401   51.3670  -36.7322 O   0  0  0  0  0  0  0  0  0  0  0  0
   88.7462   45.9313  -32.1221 O   0  0  0  0  0  0  0  0  0  0  0  0
   87.2409   50.5142  -38.0935 P   0  0  1  0  0  5  0  0  0  0  0  0
   89.7496   49.5493  -38.8815 P   0  0  2  0  0  5  0  0  0  0  0  0
   87.5296   47.0302  -32.5225 P   0  0  1  0  0  5  0  0  0  0  0  0
   89.4078   46.3750  -30.6457 P   0  0  1  0  0  5  0  0  0  0  0  0
 32  1  1  0
  1 33  1  0
  2 13  2  0
 16  2  1  0
  3  5  1  0
  3 16  1  1
 29  3  1  0
 33  4  1  6
  7  5  1  0
  5 19  1  6
 18  6  1  0
 20  6  2  0
  8  7  1  0
  7 23  1  6
  8 10  1  1
  8 29  1  0
  9 20  1  0
 21  9  2  0
 15 10  1  0
 33 11  1  0
 33 12  2  0
 22 13  1  0
 32 14  2  0
 34 15  1  0
 16 21  1  0
 18 17  1  0
 22 18  2  0
 21 22  1  0
 23 32  1  0
 35 24  1  1
 35 25  1  0
 35 26  2  0
 34 27  2  0
 34 28  1  1
 32 30  1  1
 31 34  1  0
 31 35  1  0
M  END
$$$$
