
     RDKit          3D

 35 37  0  0  0  0  0  0  0  0999 V2000
   91.4285   47.5868  -35.7828 O   0  0  0  0  0  0  0  0  0  0  0  0
   83.7036   49.8901  -35.6659 C   0  0  0  0  0  0  0  0  0  0  0  0
   86.0264   49.4654  -34.8427 C   0  0  2  0  0  0  0  0  0  0  0  0
   92.6118   49.0620  -33.8236 O   0  0  0  0  0  0  0  0  0  0  0  0
   86.6817   48.5166  -35.8119 C   0  0  1  0  0  0  0  0  0  0  0  0
   81.9572   47.2633  -32.5386 N   0  0  0  0  0  0  0  0  0  0  0  0
   87.9093   49.2969  -36.2310 C   0  0  1  0  0  0  0  0  0  0  0  0
   87.5150   50.7035  -35.9648 C   0  0  1  0  0  0  0  0  0  0  0  0
   84.1795   47.7916  -32.9394 N   0  0  0  0  0  0  0  0  0  0  0  0
   87.0830   51.3443  -37.2686 C   0  0  0  0  0  0  0  0  0  0  0  0
   92.4573   46.3608  -33.4940 O   0  0  0  0  0  0  0  0  0  0  0  0
   90.3597   47.8877  -33.3860 O   0  0  0  0  0  0  0  0  0  0  0  0
   82.4463   49.5185  -35.3467 N   0  0  0  0  0  0  0  0  0  0  0  0
   89.1894   46.2859  -35.5323 O   0  0  0  0  0  0  0  0  0  0  0  0
   85.6881   51.3375  -37.3825 O   0  0  0  0  0  0  0  0  0  0  0  0
   84.5826   49.3137  -34.8258 N   0  0  0  0  0  0  0  0  0  0  0  0
   80.1581   48.1335  -33.8646 N   0  0  0  0  0  0  0  0  0  0  0  0
   81.5316   48.0280  -33.5629 C   0  0  0  0  0  0  0  0  0  0  0  0
   87.0671   47.3551  -35.1768 O   0  0  0  0  0  0  0  0  0  0  0  0
   83.2561   47.1334  -32.2150 C   0  0  0  0  0  0  0  0  0  0  0  0
   83.8405   48.5751  -33.9771 C   0  0  0  0  0  0  0  0  0  0  0  0
   82.5005   48.6934  -34.2909 C   0  0  0  0  0  0  0  0  0  0  0  0
   89.0389   48.8662  -35.5840 O   0  0  0  0  0  0  0  0  0  0  0  0
   85.3193   54.0432  -38.2048 O   0  0  0  0  0  0  0  0  0  0  0  0
   83.2605   52.7743  -36.7967 O   0  0  0  0  0  0  0  0  0  0  0  0
   82.8302   54.3170  -38.8256 O   0  0  0  0  0  0  0  0  0  0  0  0
   86.3522   51.2798  -39.8988 O   0  0  0  0  0  0  0  0  0  0  0  0
   84.7156   49.3917  -39.0679 O   0  0  0  0  0  0  0  0  0  0  0  0
   86.4526   50.7289  -35.1067 O   0  0  0  0  0  0  0  0  0  0  0  0
   89.6642   47.3266  -37.8415 O   0  0  0  0  0  0  0  0  0  0  0  0
   83.8685   51.9670  -39.3643 O   0  0  0  0  0  0  0  0  0  0  0  0
   89.7698   47.5161  -36.2002 P   0  0  1  0  0  5  0  0  0  0  0  0
   91.6470   47.6878  -34.1283 P   0  0  2  0  0  5  0  0  0  0  0  0
   85.2014   51.0191  -38.9480 P   0  0  1  0  0  5  0  0  0  0  0  0
   83.7938   53.2787  -38.3211 P   0  0  1  0  0  5  0  0  0  0  0  0
 32  1  1  0
  1 33  1  0
  2 13  2  0
 16  2  1  0
  3  5  1  0
  3 16  1  6
 29  3  1  0
 33  4  1  6
  7  5  1  0
  5 19  1  1
 18  6  1  0
 20  6  2  0
  8  7  1  0
  7 23  1  1
  8 10  1  6
  8 29  1  0
  9 20  1  0
 21  9  2  0
 15 10  1  0
 33 11  1  0
 33 12  2  0
 22 13  1  0
 32 14  2  0
 34 15  1  0
 16 21  1  0
 18 17  1  0
 22 18  2  0
 21 22  1  0
 23 32  1  0
 35 24  1  1
 35 25  1  0
 35 26  2  0
 34 27  2  0
 34 28  1  1
 32 30  1  6
 31 34  1  0
 31 35  1  0
M  END
$$$$
