
     RDKit          3D

 35 37  0  0  0  0  0  0  0  0999 V2000
   67.3651   29.4535  -51.0348 O   0  0  0  0  0  0  0  0  0  0  0  0
   71.3438   26.4694  -55.4203 C   0  0  0  0  0  0  0  0  0  0  0  0
   69.0493   26.3877  -54.4295 C   0  0  2  0  0  0  0  0  0  0  0  0
   65.8258   30.8725  -52.7760 O   0  0  0  0  0  0  0  0  0  0  0  0
   68.9000   27.1543  -53.1414 C   0  0  1  0  0  0  0  0  0  0  0  0
   72.5918   22.8304  -53.1998 N   0  0  0  0  0  0  0  0  0  0  0  0
   67.7908   28.1261  -53.4832 C   0  0  1  0  0  0  0  0  0  0  0  0
   67.8715   28.2142  -54.9632 C   0  0  1  0  0  0  0  0  0  0  0  0
   70.5479   23.9261  -53.1926 N   0  0  0  0  0  0  0  0  0  0  0  0
   68.6257   29.4747  -55.3366 C   0  0  0  0  0  0  0  0  0  0  0  0
   68.2327   31.9134  -52.0328 O   0  0  0  0  0  0  0  0  0  0  0  0
   66.2311   31.7494  -50.3867 O   0  0  0  0  0  0  0  0  0  0  0  0
   72.4885   25.7581  -55.3512 N   0  0  0  0  0  0  0  0  0  0  0  0
   64.8542   29.0433  -51.5782 O   0  0  0  0  0  0  0  0  0  0  0  0
   68.7840   29.5613  -56.7245 O   0  0  0  0  0  0  0  0  0  0  0  0
   70.4081   25.9164  -54.6270 N   0  0  0  0  0  0  0  0  0  0  0  0
   74.4567   23.5735  -54.5121 N   0  0  0  0  0  0  0  0  0  0  0  0
   73.1235   23.7081  -54.0728 C   0  0  0  0  0  0  0  0  0  0  0  0
   68.4881   26.3235  -52.1210 O   0  0  0  0  0  0  0  0  0  0  0  0
   71.3262   22.9198  -52.7540 C   0  0  0  0  0  0  0  0  0  0  0  0
   70.9997   24.8443  -54.0635 C   0  0  0  0  0  0  0  0  0  0  0  0
   72.3028   24.7323  -54.5076 C   0  0  0  0  0  0  0  0  0  0  0  0
   66.5807   27.7242  -52.9792 O   0  0  0  0  0  0  0  0  0  0  0  0
   64.8708   30.4406  -59.8417 O   0  0  0  0  0  0  0  0  0  0  0  0
   67.6430   30.1945  -60.1345 O   0  0  0  0  0  0  0  0  0  0  0  0
   66.4628   32.4704  -59.8047 O   0  0  0  0  0  0  0  0  0  0  0  0
   68.4610   32.1079  -56.2924 O   0  0  0  0  0  0  0  0  0  0  0  0
   69.0423   31.3953  -58.7598 O   0  0  0  0  0  0  0  0  0  0  0  0
   68.5660   27.1437  -55.4506 O   0  0  0  0  0  0  0  0  0  0  0  0
   66.0698   27.1804  -50.2771 O   0  0  0  0  0  0  0  0  0  0  0  0
   66.5787   30.9154  -57.6929 O   0  0  0  0  0  0  0  0  0  0  0  0
   66.1758   28.3077  -51.4851 P   0  0  1  0  0  5  0  0  0  0  0  0
   66.9318   31.0047  -51.4832 P   0  0  2  0  0  5  0  0  0  0  0  0
   68.2209   31.0176  -57.3171 P   0  0  1  0  0  5  0  0  0  0  0  0
   66.3987   31.0364  -59.3564 P   0  0  1  0  0  5  0  0  0  0  0  0
 32  1  1  0
  1 33  1  0
  2 13  2  0
 16  2  1  0
  3  5  1  0
  3 16  1  6
 29  3  1  0
 33  4  1  6
  7  5  1  0
  5 19  1  1
 18  6  1  0
 20  6  2  0
  8  7  1  0
  7 23  1  6
  8 10  1  1
  8 29  1  0
  9 20  1  0
 21  9  2  0
 15 10  1  0
 33 11  1  0
 33 12  2  0
 22 13  1  0
 32 14  2  0
 34 15  1  0
 16 21  1  0
 18 17  1  0
 22 18  2  0
 21 22  1  0
 23 32  1  0
 35 24  1  1
 35 25  1  0
 35 26  2  0
 34 27  2  0
 34 28  1  6
 32 30  1  1
 31 34  1  0
 31 35  1  0
M  END
$$$$
