
     RDKit          3D

 35 37  0  0  0  0  0  0  0  0999 V2000
   49.3930   31.2237    4.7509 O   0  0  0  0  0  0  0  0  0  0  0  0
   44.1106   27.4876    0.0348 C   0  0  0  0  0  0  0  0  0  0  0  0
   45.4937   27.7717    2.0986 C   0  0  2  0  0  0  0  0  0  0  0  0
   47.1715   31.4277    6.3124 O   0  0  0  0  0  0  0  0  0  0  0  0
   46.8674   28.2824    1.7501 C   0  0  1  0  0  0  0  0  0  0  0  0
   44.9886   23.1365   -0.1320 N   0  0  0  0  0  0  0  0  0  0  0  0
   46.9424   29.5569    2.5635 C   0  0  1  0  0  0  0  0  0  0  0  0
   45.5134   29.9097    2.7595 C   0  0  1  0  0  0  0  0  0  0  0  0
   45.7035   24.7209    1.4032 N   0  0  0  0  0  0  0  0  0  0  0  0
   45.1324   30.9784    1.7547 C   0  0  0  0  0  0  0  0  0  0  0  0
   49.6142   31.5943    7.5101 O   0  0  0  0  0  0  0  0  0  0  0  0
   48.7150   29.3732    6.5096 O   0  0  0  0  0  0  0  0  0  0  0  0
   43.7535   26.4890   -0.7997 N   0  0  0  0  0  0  0  0  0  0  0  0
   50.1507   28.8048    4.1648 O   0  0  0  0  0  0  0  0  0  0  0  0
   44.4753   30.4108    0.6570 O   0  0  0  0  0  0  0  0  0  0  0  0
   44.9046   27.0113    1.0112 N   0  0  0  0  0  0  0  0  0  0  0  0
   43.5649   23.6765   -1.9850 N   0  0  0  0  0  0  0  0  0  0  0  0
   44.2879   24.0491   -0.8331 C   0  0  0  0  0  0  0  0  0  0  0  0
   47.8404   27.4038    2.1772 O   0  0  0  0  0  0  0  0  0  0  0  0
   45.6920   23.4464    0.9715 C   0  0  0  0  0  0  0  0  0  0  0  0
   45.0319   25.6927    0.7628 C   0  0  0  0  0  0  0  0  0  0  0  0
   44.3164   25.3509   -0.3682 C   0  0  0  0  0  0  0  0  0  0  0  0
   47.6744   29.3928    3.7113 O   0  0  0  0  0  0  0  0  0  0  0  0
   46.1715   29.5988   -1.4689 O   0  0  0  0  0  0  0  0  0  0  0  0
   46.8980   31.5164   -3.3733 O   0  0  0  0  0  0  0  0  0  0  0  0
   44.5371   30.4695   -3.2652 O   0  0  0  0  0  0  0  0  0  0  0  0
   42.7807   30.9963   -1.2302 O   0  0  0  0  0  0  0  0  0  0  0  0
   43.2927   32.8920    0.5243 O   0  0  0  0  0  0  0  0  0  0  0  0
   44.7329   28.8127    2.5292 O   0  0  0  0  0  0  0  0  0  0  0  0
   49.7914   30.4111    2.1819 O   0  0  0  0  0  0  0  0  0  0  0  0
   45.1278   32.1794   -1.3631 O   0  0  0  0  0  0  0  0  0  0  0  0
   49.2447   29.9108    3.6624 P   0  0  1  0  0  5  0  0  0  0  0  0
   48.7765   30.8502    6.2593 P   0  0  2  0  0  5  0  0  0  0  0  0
   43.8920   31.5810   -0.3819 P   0  0  1  0  0  5  0  0  0  0  0  0
   45.6519   30.9509   -2.3782 P   0  0  1  0  0  5  0  0  0  0  0  0
 32  1  1  0
  1 33  1  0
  2 13  2  0
 16  2  1  0
  3  5  1  0
  3 16  1  6
 29  3  1  0
 33  4  1  6
  7  5  1  0
  5 19  1  1
 18  6  1  0
 20  6  2  0
  8  7  1  0
  7 23  1  1
  8 10  1  6
  8 29  1  0
  9 20  1  0
 21  9  2  0
 15 10  1  0
 33 11  1  0
 33 12  2  0
 22 13  1  0
 32 14  2  0
 34 15  1  0
 16 21  1  0
 18 17  1  0
 22 18  2  0
 21 22  1  0
 23 32  1  0
 35 24  1  1
 35 25  1  0
 35 26  2  0
 34 27  2  0
 34 28  1  1
 32 30  1  6
 31 34  1  0
 31 35  1  0
M  END
$$$$
