
     RDKit          3D

 35 37  0  0  0  0  0  0  0  0999 V2000
   69.1833   29.8589  -52.3446 O   0  0  0  0  0  0  0  0  0  0  0  0
   70.1948   33.5766  -57.3850 C   0  0  0  0  0  0  0  0  0  0  0  0
   70.6034   31.4419  -56.1485 C   0  0  2  0  0  0  0  0  0  0  0  0
   67.9763   31.8248  -50.8977 O   0  0  0  0  0  0  0  0  0  0  0  0
   69.5686   31.1449  -55.0948 C   0  0  1  0  0  0  0  0  0  0  0  0
   72.7001   35.8808  -54.5311 N   0  0  0  0  0  0  0  0  0  0  0  0
   69.0518   29.7926  -55.5372 C   0  0  1  0  0  0  0  0  0  0  0  0
   69.3687   29.7748  -56.9877 C   0  0  1  0  0  0  0  0  0  0  0  0
   72.1988   33.6166  -54.5483 N   0  0  0  0  0  0  0  0  0  0  0  0
   68.1161   30.1262  -57.7652 C   0  0  0  0  0  0  0  0  0  0  0  0
   67.9215   29.2807  -49.9211 O   0  0  0  0  0  0  0  0  0  0  0  0
   66.5648   29.9838  -52.0206 O   0  0  0  0  0  0  0  0  0  0  0  0
   70.5479   34.8750  -57.2819 N   0  0  0  0  0  0  0  0  0  0  0  0
   67.4021   28.3485  -53.4912 O   0  0  0  0  0  0  0  0  0  0  0  0
   68.4420   30.5562  -59.0566 O   0  0  0  0  0  0  0  0  0  0  0  0
   70.7462   32.8674  -56.3832 N   0  0  0  0  0  0  0  0  0  0  0  0
   71.8669   37.4059  -56.1840 N   0  0  0  0  0  0  0  0  0  0  0  0
   71.9695   36.1090  -55.6399 C   0  0  0  0  0  0  0  0  0  0  0  0
   70.1531   31.0319  -53.8513 O   0  0  0  0  0  0  0  0  0  0  0  0
   72.8259   34.6615  -53.9778 C   0  0  0  0  0  0  0  0  0  0  0  0
   71.4503   33.7570  -55.6555 C   0  0  0  0  0  0  0  0  0  0  0  0
   71.3356   35.0185  -56.2061 C   0  0  0  0  0  0  0  0  0  0  0  0
   69.5910   28.7693  -54.8008 O   0  0  0  0  0  0  0  0  0  0  0  0
   65.4503   29.8185  -57.2403 O   0  0  0  0  0  0  0  0  0  0  0  0
   64.2673   30.5655  -59.6640 O   0  0  0  0  0  0  0  0  0  0  0  0
   63.8727   31.8486  -57.4550 O   0  0  0  0  0  0  0  0  0  0  0  0
   67.7716   32.4903  -60.6646 O   0  0  0  0  0  0  0  0  0  0  0  0
   66.1938   30.3823  -60.6339 O   0  0  0  0  0  0  0  0  0  0  0  0
   70.3178   30.7177  -57.2629 O   0  0  0  0  0  0  0  0  0  0  0  0
   69.4658   27.1550  -52.5126 O   0  0  0  0  0  0  0  0  0  0  0  0
   66.2383   32.1453  -58.5536 O   0  0  0  0  0  0  0  0  0  0  0  0
   68.9022   28.4835  -53.3242 P   0  0  1  0  0  5  0  0  0  0  0  0
   67.8862   30.1789  -51.3395 P   0  0  2  0  0  5  0  0  0  0  0  0
   67.1975   31.4317  -59.7448 P   0  0  1  0  0  5  0  0  0  0  0  0
   64.9475   31.1270  -58.2201 P   0  0  1  0  0  5  0  0  0  0  0  0
 32  1  1  0
  1 33  1  0
  2 13  2  0
 16  2  1  0
  3  5  1  0
  3 16  1  6
 29  3  1  0
 33  4  1  1
  7  5  1  0
  5 19  1  1
 18  6  1  0
 20  6  2  0
  8  7  1  0
  7 23  1  1
  8 10  1  6
  8 29  1  0
  9 20  1  0
 21  9  2  0
 15 10  1  0
 33 11  1  0
 33 12  2  0
 22 13  1  0
 32 14  2  0
 34 15  1  0
 16 21  1  0
 18 17  1  0
 22 18  2  0
 21 22  1  0
 23 32  1  0
 35 24  1  1
 35 25  1  0
 35 26  2  0
 34 27  2  0
 34 28  1  6
 32 30  1  1
 31 34  1  0
 31 35  1  0
M  END
$$$$
