
     RDKit          3D

 35 37  0  0  0  0  0  0  0  0999 V2000
   68.7514   27.8512  -53.6802 O   0  0  0  0  0  0  0  0  0  0  0  0
   70.7533   34.6922  -55.9325 C   0  0  0  0  0  0  0  0  0  0  0  0
   70.1780   32.3105  -56.4324 C   0  0  2  0  0  0  0  0  0  0  0  0
   66.7703   29.0838  -55.0840 O   0  0  0  0  0  0  0  0  0  0  0  0
   70.2629   31.3509  -55.2742 C   0  0  1  0  0  0  0  0  0  0  0  0
   75.0749   33.9513  -56.6432 N   0  0  0  0  0  0  0  0  0  0  0  0
   68.8580   30.7888  -55.2309 C   0  0  1  0  0  0  0  0  0  0  0  0
   68.0559   31.8495  -55.8917 C   0  0  1  0  0  0  0  0  0  0  0  0
   73.2908   32.4757  -56.7767 N   0  0  0  0  0  0  0  0  0  0  0  0
   67.3850   32.6904  -54.8241 C   0  0  0  0  0  0  0  0  0  0  0  0
   66.1921   28.1289  -52.5975 O   0  0  0  0  0  0  0  0  0  0  0  0
   66.6475   26.5534  -54.6108 O   0  0  0  0  0  0  0  0  0  0  0  0
   71.8588   35.4646  -55.8838 N   0  0  0  0  0  0  0  0  0  0  0  0
   69.7213   27.1439  -55.9883 O   0  0  0  0  0  0  0  0  0  0  0  0
   66.3560   31.9716  -54.2051 O   0  0  0  0  0  0  0  0  0  0  0  0
   71.0843   33.4337  -56.2750 N   0  0  0  0  0  0  0  0  0  0  0  0
   74.8060   36.2612  -56.0564 N   0  0  0  0  0  0  0  0  0  0  0  0
   74.2736   34.9780  -56.2983 C   0  0  0  0  0  0  0  0  0  0  0  0
   71.1581   30.3371  -55.5417 O   0  0  0  0  0  0  0  0  0  0  0  0
   74.6112   32.7119  -56.8830 C   0  0  0  0  0  0  0  0  0  0  0  0
   72.4223   33.4434  -56.4377 C   0  0  0  0  0  0  0  0  0  0  0  0
   72.9213   34.7085  -56.1961 C   0  0  0  0  0  0  0  0  0  0  0  0
   68.7829   29.5458  -55.8048 O   0  0  0  0  0  0  0  0  0  0  0  0
   61.2622   31.7919  -52.9333 O   0  0  0  0  0  0  0  0  0  0  0  0
   62.9386   33.9030  -53.6847 O   0  0  0  0  0  0  0  0  0  0  0  0
   63.5302   32.2465  -51.7906 O   0  0  0  0  0  0  0  0  0  0  0  0
   64.5467   33.6613  -55.0097 O   0  0  0  0  0  0  0  0  0  0  0  0
   65.0248   31.6067  -56.5857 O   0  0  0  0  0  0  0  0  0  0  0  0
   68.8783   32.6627  -56.6183 O   0  0  0  0  0  0  0  0  0  0  0  0
   71.1674   28.7386  -54.5717 O   0  0  0  0  0  0  0  0  0  0  0  0
   63.6755   31.3016  -54.2354 O   0  0  0  0  0  0  0  0  0  0  0  0
   69.6369   28.3397  -55.0613 P   0  0  1  0  0  5  0  0  0  0  0  0
   67.1059   27.8313  -53.9746 P   0  0  2  0  0  5  0  0  0  0  0  0
   64.8979   32.1873  -54.9902 P   0  0  1  0  0  5  0  0  0  0  0  0
   62.8814   32.3001  -53.1461 P   0  0  1  0  0  5  0  0  0  0  0  0
 32  1  1  0
  1 33  1  0
  2 13  2  0
 16  2  1  0
  3  5  1  0
  3 16  1  1
 29  3  1  0
 33  4  1  6
  7  5  1  0
  5 19  1  6
 18  6  1  0
 20  6  2  0
  8  7  1  0
  7 23  1  6
  8 10  1  1
  8 29  1  0
  9 20  1  0
 21  9  2  0
 15 10  1  0
 33 11  1  0
 33 12  2  0
 22 13  1  0
 32 14  2  0
 34 15  1  0
 16 21  1  0
 18 17  1  0
 22 18  2  0
 21 22  1  0
 23 32  1  0
 35 24  1  1
 35 25  1  0
 35 26  2  0
 34 27  2  0
 34 28  1  6
 32 30  1  1
 31 34  1  0
 31 35  1  0
M  END
$$$$
