
     RDKit          3D

 35 37  0  0  0  0  0  0  0  0999 V2000
   82.0681   51.0376  -34.6214 O   0  0  0  0  0  0  0  0  0  0  0  0
   87.5196   50.7404  -38.7687 C   0  0  0  0  0  0  0  0  0  0  0  0
   86.1282   51.7845  -36.9723 C   0  0  2  0  0  0  0  0  0  0  0  0
   81.8946   48.9869  -36.4045 O   0  0  0  0  0  0  0  0  0  0  0  0
   84.9197   51.0812  -36.4119 C   0  0  1  0  0  0  0  0  0  0  0  0
   84.4596   51.6339  -41.8620 N   0  0  0  0  0  0  0  0  0  0  0  0
   85.2462   51.0285  -34.9347 C   0  0  1  0  0  0  0  0  0  0  0  0
   86.7277   51.1275  -34.9187 C   0  0  1  0  0  0  0  0  0  0  0  0
   84.4310   52.1004  -39.5905 N   0  0  0  0  0  0  0  0  0  0  0  0
   87.3077   49.7379  -34.7471 C   0  0  0  0  0  0  0  0  0  0  0  0
   80.5729   48.7535  -34.0323 O   0  0  0  0  0  0  0  0  0  0  0  0
   83.1640   48.6745  -34.1834 O   0  0  0  0  0  0  0  0  0  0  0  0
   87.4345   50.5179  -40.0969 N   0  0  0  0  0  0  0  0  0  0  0  0
   83.5186   50.2947  -32.5934 O   0  0  0  0  0  0  0  0  0  0  0  0
   88.7042   49.7928  -34.6713 O   0  0  0  0  0  0  0  0  0  0  0  0
   86.4137   51.3724  -38.3348 N   0  0  0  0  0  0  0  0  0  0  0  0
   86.2918   50.5167  -42.9333 N   0  0  0  0  0  0  0  0  0  0  0  0
   85.6720   51.0512  -41.7849 C   0  0  0  0  0  0  0  0  0  0  0  0
   83.7804   51.8328  -36.6068 O   0  0  0  0  0  0  0  0  0  0  0  0
   83.8315   52.1565  -40.7939 C   0  0  0  0  0  0  0  0  0  0  0  0
   85.6397   51.5369  -39.4259 C   0  0  0  0  0  0  0  0  0  0  0  0
   86.2659   51.0067  -40.5371 C   0  0  0  0  0  0  0  0  0  0  0  0
   84.5806   51.9951  -34.2256 O   0  0  0  0  0  0  0  0  0  0  0  0
   88.7615   44.5184  -36.3617 O   0  0  0  0  0  0  0  0  0  0  0  0
   90.6674   45.6367  -34.6447 O   0  0  0  0  0  0  0  0  0  0  0  0
   90.4813   46.2759  -37.1423 O   0  0  0  0  0  0  0  0  0  0  0  0
   90.8484   48.3332  -34.8908 O   0  0  0  0  0  0  0  0  0  0  0  0
   89.1759   47.6886  -32.9618 O   0  0  0  0  0  0  0  0  0  0  0  0
   87.1682   51.6272  -36.1112 O   0  0  0  0  0  0  0  0  0  0  0  0
   82.4952   52.6568  -32.4732 O   0  0  0  0  0  0  0  0  0  0  0  0
   88.5815   47.1847  -35.5753 O   0  0  0  0  0  0  0  0  0  0  0  0
   83.2081   51.5148  -33.4369 P   0  0  1  0  0  5  0  0  0  0  0  0
   81.9618   49.3736  -34.7438 P   0  0  2  0  0  5  0  0  0  0  0  0
   89.3731   48.2673  -34.5508 P   0  0  1  0  0  5  0  0  0  0  0  0
   89.6321   45.9317  -35.9499 P   0  0  1  0  0  5  0  0  0  0  0  0
 32  1  1  0
  1 33  1  0
  2 13  2  0
 16  2  1  0
  3  5  1  0
  3 16  1  6
 29  3  1  0
 33  4  1  6
  7  5  1  0
  5 19  1  1
 18  6  1  0
 20  6  2  0
  8  7  1  0
  7 23  1  1
  8 10  1  6
  8 29  1  0
  9 20  1  0
 21  9  2  0
 15 10  1  0
 33 11  1  0
 33 12  2  0
 22 13  1  0
 32 14  2  0
 34 15  1  0
 16 21  1  0
 18 17  1  0
 22 18  2  0
 21 22  1  0
 23 32  1  0
 35 24  1  6
 35 25  1  0
 35 26  2  0
 34 27  2  0
 34 28  1  1
 32 30  1  1
 31 34  1  0
 31 35  1  0
M  END
$$$$
