
     RDKit          3D

 35 37  0  0  0  0  0  0  0  0999 V2000
   69.6158   26.7773  -52.3859 O   0  0  0  0  0  0  0  0  0  0  0  0
   71.0054   32.1559  -55.3852 C   0  0  0  0  0  0  0  0  0  0  0  0
   71.2589   29.6685  -55.4293 C   0  0  2  0  0  0  0  0  0  0  0  0
   67.6238   28.6336  -52.3493 O   0  0  0  0  0  0  0  0  0  0  0  0
   70.6810   28.9261  -54.2529 C   0  0  1  0  0  0  0  0  0  0  0  0
   74.7518   32.6435  -53.0491 N   0  0  0  0  0  0  0  0  0  0  0  0
   69.7060   27.9842  -54.9266 C   0  0  1  0  0  0  0  0  0  0  0  0
   69.4136   28.6718  -56.2098 C   0  0  1  0  0  0  0  0  0  0  0  0
   73.7454   30.7023  -53.8218 N   0  0  0  0  0  0  0  0  0  0  0  0
   68.0913   29.4014  -56.0822 C   0  0  0  0  0  0  0  0  0  0  0  0
   67.1642   26.2198  -51.1699 O   0  0  0  0  0  0  0  0  0  0  0  0
   67.3703   26.4819  -53.7451 O   0  0  0  0  0  0  0  0  0  0  0  0
   71.6721   33.2201  -54.8911 N   0  0  0  0  0  0  0  0  0  0  0  0
   69.2105   24.6550  -53.8350 O   0  0  0  0  0  0  0  0  0  0  0  0
   67.4047   29.3939  -57.3018 O   0  0  0  0  0  0  0  0  0  0  0  0
   71.6569   31.0195  -55.0770 N   0  0  0  0  0  0  0  0  0  0  0  0
   73.8321   34.8242  -53.4380 N   0  0  0  0  0  0  0  0  0  0  0  0
   73.7874   33.4217  -53.5779 C   0  0  0  0  0  0  0  0  0  0  0  0
   71.6559   28.1967  -53.6061 O   0  0  0  0  0  0  0  0  0  0  0  0
   74.7498   31.3031  -53.1578 C   0  0  0  0  0  0  0  0  0  0  0  0
   72.7442   31.4040  -54.3794 C   0  0  0  0  0  0  0  0  0  0  0  0
   72.7672   32.7795  -54.2549 C   0  0  0  0  0  0  0  0  0  0  0  0
   70.2101   26.7139  -55.0371 O   0  0  0  0  0  0  0  0  0  0  0  0
   64.8817   31.6397  -54.2549 O   0  0  0  0  0  0  0  0  0  0  0  0
   63.9983   32.4780  -56.7745 O   0  0  0  0  0  0  0  0  0  0  0  0
   65.4828   33.9437  -55.2482 O   0  0  0  0  0  0  0  0  0  0  0  0
   66.0352   31.0352  -58.7872 O   0  0  0  0  0  0  0  0  0  0  0  0
   64.7713   29.9629  -56.7411 O   0  0  0  0  0  0  0  0  0  0  0  0
   70.3854   29.5961  -56.4683 O   0  0  0  0  0  0  0  0  0  0  0  0
   71.6553   25.1662  -53.2003 O   0  0  0  0  0  0  0  0  0  0  0  0
   66.6655   31.8914  -56.3797 O   0  0  0  0  0  0  0  0  0  0  0  0
   70.1947   25.7943  -53.6621 P   0  0  1  0  0  5  0  0  0  0  0  0
   67.9555   26.9628  -52.4511 P   0  0  2  0  0  5  0  0  0  0  0  0
   66.2335   30.5832  -57.3545 P   0  0  1  0  0  5  0  0  0  0  0  0
   65.2792   32.5147  -55.6697 P   0  0  1  0  0  5  0  0  0  0  0  0
 32  1  1  0
  1 33  1  0
  2 13  2  0
 16  2  1  0
  3  5  1  0
  3 16  1  1
 29  3  1  0
 33  4  1  1
  7  5  1  0
  5 19  1  6
 18  6  1  0
 20  6  2  0
  8  7  1  0
  7 23  1  6
  8 10  1  1
  8 29  1  0
  9 20  1  0
 21  9  2  0
 15 10  1  0
 33 11  1  0
 33 12  2  0
 22 13  1  0
 32 14  2  0
 34 15  1  0
 16 21  1  0
 18 17  1  0
 22 18  2  0
 21 22  1  0
 23 32  1  0
 35 24  1  1
 35 25  1  0
 35 26  2  0
 34 27  2  0
 34 28  1  1
 32 30  1  1
 31 34  1  0
 31 35  1  0
M  END
$$$$
