
     RDKit          3D

 35 37  0  0  0  0  0  0  0  0999 V2000
   87.4032   48.7681  -31.2997 O   0  0  0  0  0  0  0  0  0  0  0  0
   85.5077   51.5910  -38.7603 C   0  0  0  0  0  0  0  0  0  0  0  0
   86.4665   51.3785  -36.4605 C   0  0  2  0  0  0  0  0  0  0  0  0
   89.0257   48.1350  -33.3929 O   0  0  0  0  0  0  0  0  0  0  0  0
   85.5464   50.6994  -35.4800 C   0  0  1  0  0  0  0  0  0  0  0  0
   83.8129   55.5931  -37.8430 N   0  0  0  0  0  0  0  0  0  0  0  0
   86.3919   49.5331  -35.0147 C   0  0  1  0  0  0  0  0  0  0  0  0
   87.3452   49.3458  -36.1376 C   0  0  1  0  0  0  0  0  0  0  0  0
   85.0392   54.1709  -36.4822 N   0  0  0  0  0  0  0  0  0  0  0  0
   86.8576   48.2034  -37.0062 C   0  0  0  0  0  0  0  0  0  0  0  0
   87.9110   46.1023  -31.9595 O   0  0  0  0  0  0  0  0  0  0  0  0
   89.7653   47.6311  -30.9760 O   0  0  0  0  0  0  0  0  0  0  0  0
   84.7898   52.4906  -39.4648 N   0  0  0  0  0  0  0  0  0  0  0  0
   85.2271   50.0644  -31.8933 O   0  0  0  0  0  0  0  0  0  0  0  0
   87.7871   47.9185  -38.0130 O   0  0  0  0  0  0  0  0  0  0  0  0
   85.7331   52.0527  -37.5166 N   0  0  0  0  0  0  0  0  0  0  0  0
   83.2491   55.0519  -40.1104 N   0  0  0  0  0  0  0  0  0  0  0  0
   83.8642   54.7362  -38.8814 C   0  0  0  0  0  0  0  0  0  0  0  0
   85.2718   51.5263  -34.4114 O   0  0  0  0  0  0  0  0  0  0  0  0
   84.3846   55.3340  -36.6536 C   0  0  0  0  0  0  0  0  0  0  0  0
   85.1377   53.2609  -37.4660 C   0  0  0  0  0  0  0  0  0  0  0  0
   84.5427   53.5487  -38.6789 C   0  0  0  0  0  0  0  0  0  0  0  0
   86.9598   49.7657  -33.7886 O   0  0  0  0  0  0  0  0  0  0  0  0
   85.4725   46.7504  -42.1178 O   0  0  0  0  0  0  0  0  0  0  0  0
   87.3289   48.8410  -42.2374 O   0  0  0  0  0  0  0  0  0  0  0  0
   85.7847   48.4498  -40.2019 O   0  0  0  0  0  0  0  0  0  0  0  0
   88.0683   45.3460  -38.2938 O   0  0  0  0  0  0  0  0  0  0  0  0
   85.6747   46.3302  -38.7795 O   0  0  0  0  0  0  0  0  0  0  0  0
   87.3815   50.4761  -36.9037 O   0  0  0  0  0  0  0  0  0  0  0  0
   85.4117   47.6544  -32.7870 O   0  0  0  0  0  0  0  0  0  0  0  0
   87.7457   46.7318  -40.5079 O   0  0  0  0  0  0  0  0  0  0  0  0
   86.2087   49.0742  -32.4870 P   0  0  1  0  0  5  0  0  0  0  0  0
   88.5336   47.6566  -31.8305 P   0  0  2  0  0  5  0  0  0  0  0  0
   87.3600   46.5532  -38.8746 P   0  0  1  0  0  5  0  0  0  0  0  0
   86.5844   47.7016  -41.2324 P   0  0  1  0  0  5  0  0  0  0  0  0
 32  1  1  0
  1 33  1  0
  2 13  2  0
 16  2  1  0
  3  5  1  0
  3 16  1  6
 29  3  1  0
 33  4  1  6
  7  5  1  0
  5 19  1  1
 18  6  1  0
 20  6  2  0
  8  7  1  0
  7 23  1  1
  8 10  1  6
  8 29  1  0
  9 20  1  0
 21  9  2  0
 15 10  1  0
 33 11  1  0
 33 12  2  0
 22 13  1  0
 32 14  2  0
 34 15  1  0
 16 21  1  0
 18 17  1  0
 22 18  2  0
 21 22  1  0
 23 32  1  0
 35 24  1  6
 35 25  1  0
 35 26  2  0
 34 27  2  0
 34 28  1  6
 32 30  1  6
 31 34  1  0
 31 35  1  0
M  END
$$$$
