
     RDKit          3D

 35 37  0  0  0  0  0  0  0  0999 V2000
   66.2057   30.7787  -57.3704 O   0  0  0  0  0  0  0  0  0  0  0  0
   71.2402   28.9713  -53.4111 C   0  0  0  0  0  0  0  0  0  0  0  0
   70.8818   29.3965  -55.8492 C   0  0  2  0  0  0  0  0  0  0  0  0
   66.9976   33.3837  -57.4114 O   0  0  0  0  0  0  0  0  0  0  0  0
   69.4201   29.1052  -56.0680 C   0  0  1  0  0  0  0  0  0  0  0  0
   73.7169   25.3809  -54.2510 N   0  0  0  0  0  0  0  0  0  0  0  0
   68.9318   30.4007  -56.6801 C   0  0  1  0  0  0  0  0  0  0  0  0
   69.9291   31.3907  -56.2003 C   0  0  1  0  0  0  0  0  0  0  0  0
   72.6738   26.8252  -55.7357 N   0  0  0  0  0  0  0  0  0  0  0  0
   69.3487   32.1316  -55.0123 C   0  0  0  0  0  0  0  0  0  0  0  0
   64.4930   32.8073  -56.5039 O   0  0  0  0  0  0  0  0  0  0  0  0
   65.1461   32.5624  -59.0051 O   0  0  0  0  0  0  0  0  0  0  0  0
   71.8849   28.0734  -52.6371 N   0  0  0  0  0  0  0  0  0  0  0  0
   67.1175   31.2658  -59.7578 O   0  0  0  0  0  0  0  0  0  0  0  0
   69.2545   31.2851  -53.9018 O   0  0  0  0  0  0  0  0  0  0  0  0
   71.4160   28.6707  -54.7109 N   0  0  0  0  0  0  0  0  0  0  0  0
   73.5890   25.6526  -51.8715 N   0  0  0  0  0  0  0  0  0  0  0  0
   73.2680   26.0656  -53.1810 C   0  0  0  0  0  0  0  0  0  0  0  0
   69.2547   28.0764  -56.9709 O   0  0  0  0  0  0  0  0  0  0  0  0
   73.4359   25.7381  -55.5168 C   0  0  0  0  0  0  0  0  0  0  0  0
   72.1855   27.5643  -54.7252 C   0  0  0  0  0  0  0  0  0  0  0  0
   72.4872   27.1784  -53.4336 C   0  0  0  0  0  0  0  0  0  0  0  0
   68.7971   30.3083  -58.0415 O   0  0  0  0  0  0  0  0  0  0  0  0
   68.3460   28.9073  -52.8448 O   0  0  0  0  0  0  0  0  0  0  0  0
   66.1957   30.3292  -51.7560 O   0  0  0  0  0  0  0  0  0  0  0  0
   67.7580   28.8401  -50.3337 O   0  0  0  0  0  0  0  0  0  0  0  0
   69.7107   33.2932  -52.3095 O   0  0  0  0  0  0  0  0  0  0  0  0
   67.1864   32.6776  -52.7372 O   0  0  0  0  0  0  0  0  0  0  0  0
   71.0581   30.7428  -55.7864 O   0  0  0  0  0  0  0  0  0  0  0  0
   66.7222   28.7906  -59.1591 O   0  0  0  0  0  0  0  0  0  0  0  0
   68.7824   31.1019  -51.1855 O   0  0  0  0  0  0  0  0  0  0  0  0
   67.2501   30.2665  -58.6263 P   0  0  1  0  0  5  0  0  0  0  0  0
   65.6624   32.3407  -57.6151 P   0  0  2  0  0  5  0  0  0  0  0  0
   68.7813   32.1174  -52.5335 P   0  0  1  0  0  5  0  0  0  0  0  0
   67.7794   29.7936  -51.4963 P   0  0  1  0  0  5  0  0  0  0  0  0
 32  1  1  0
  1 33  1  0
  2 13  2  0
 16  2  1  0
  3  5  1  0
  3 16  1  1
 29  3  1  0
 33  4  1  1
  7  5  1  0
  5 19  1  6
 18  6  1  0
 20  6  2  0
  8  7  1  0
  7 23  1  6
  8 10  1  1
  8 29  1  0
  9 20  1  0
 21  9  2  0
 15 10  1  0
 33 11  1  0
 33 12  2  0
 22 13  1  0
 32 14  2  0
 34 15  1  0
 16 21  1  0
 18 17  1  0
 22 18  2  0
 21 22  1  0
 23 32  1  0
 35 24  1  6
 35 25  1  0
 35 26  2  0
 34 27  2  0
 34 28  1  6
 32 30  1  6
 31 34  1  0
 31 35  1  0
M  END
$$$$
