
     RDKit          3D

 35 37  0  0  0  0  0  0  0  0999 V2000
   83.6547   51.2931  -34.8604 O   0  0  0  0  0  0  0  0  0  0  0  0
   88.5853   47.5796  -38.0690 C   0  0  0  0  0  0  0  0  0  0  0  0
   87.4310   49.7975  -38.0313 C   0  0  2  0  0  0  0  0  0  0  0  0
   82.5441   51.2841  -32.3741 O   0  0  0  0  0  0  0  0  0  0  0  0
   86.0448   49.7532  -37.4434 C   0  0  1  0  0  0  0  0  0  0  0  0
   87.0547   46.6871  -42.1423 N   0  0  0  0  0  0  0  0  0  0  0  0
   86.1544   50.7505  -36.3098 C   0  0  1  0  0  0  0  0  0  0  0  0
   87.6111   50.7671  -36.0224 C   0  0  1  0  0  0  0  0  0  0  0  0
   86.7112   48.5633  -40.8231 N   0  0  0  0  0  0  0  0  0  0  0  0
   87.8810   49.8867  -34.8187 C   0  0  0  0  0  0  0  0  0  0  0  0
   81.2598   52.6397  -34.3595 O   0  0  0  0  0  0  0  0  0  0  0  0
   83.5105   53.4611  -33.3584 O   0  0  0  0  0  0  0  0  0  0  0  0
   88.7204   46.5372  -38.9154 N   0  0  0  0  0  0  0  0  0  0  0  0
   83.7021   53.6119  -36.0391 O   0  0  0  0  0  0  0  0  0  0  0  0
   87.8966   48.5370  -35.1889 O   0  0  0  0  0  0  0  0  0  0  0  0
   87.8100   48.5283  -38.6255 N   0  0  0  0  0  0  0  0  0  0  0  0
   88.3894   44.8268  -41.4284 N   0  0  0  0  0  0  0  0  0  0  0  0
   87.8255   46.1000  -41.2061 C   0  0  0  0  0  0  0  0  0  0  0  0
   85.1102   50.1928  -38.3568 O   0  0  0  0  0  0  0  0  0  0  0  0
   86.4968   47.8991  -41.9735 C   0  0  0  0  0  0  0  0  0  0  0  0
   87.4671   48.0497  -39.8379 C   0  0  0  0  0  0  0  0  0  0  0  0
   88.0299   46.8035  -40.0336 C   0  0  0  0  0  0  0  0  0  0  0  0
   85.6013   51.9623  -36.6350 O   0  0  0  0  0  0  0  0  0  0  0  0
   85.7800   45.1889  -32.9242 O   0  0  0  0  0  0  0  0  0  0  0  0
   86.7024   45.8259  -35.4884 O   0  0  0  0  0  0  0  0  0  0  0  0
   85.8320   47.6050  -33.8274 O   0  0  0  0  0  0  0  0  0  0  0  0
   89.9479   46.9345  -35.1876 O   0  0  0  0  0  0  0  0  0  0  0  0
   89.8459   48.7202  -33.2551 O   0  0  0  0  0  0  0  0  0  0  0  0
   88.2958   50.2529  -37.0866 O   0  0  0  0  0  0  0  0  0  0  0  0
   82.9500   51.6069  -37.4726 O   0  0  0  0  0  0  0  0  0  0  0  0
   88.1775   46.5630  -33.2761 O   0  0  0  0  0  0  0  0  0  0  0  0
   83.9911   52.1482  -36.3047 P   0  0  1  0  0  5  0  0  0  0  0  0
   82.7796   52.2218  -33.7802 P   0  0  2  0  0  5  0  0  0  0  0  0
   88.9836   47.6613  -34.2720 P   0  0  1  0  0  5  0  0  0  0  0  0
   86.6279   46.3300  -33.8751 P   0  0  1  0  0  5  0  0  0  0  0  0
 32  1  1  0
  1 33  1  0
  2 13  2  0
 16  2  1  0
  3  5  1  0
  3 16  1  1
 29  3  1  0
 33  4  1  1
  7  5  1  0
  5 19  1  6
 18  6  1  0
 20  6  2  0
  8  7  1  0
  7 23  1  6
  8 10  1  1
  8 29  1  0
  9 20  1  0
 21  9  2  0
 15 10  1  0
 33 11  1  0
 33 12  2  0
 22 13  1  0
 32 14  2  0
 34 15  1  0
 16 21  1  0
 18 17  1  0
 22 18  2  0
 21 22  1  0
 23 32  1  0
 35 24  1  1
 35 25  1  0
 35 26  2  0
 34 27  2  0
 34 28  1  1
 32 30  1  6
 31 34  1  0
 31 35  1  0
M  END
$$$$
