
     RDKit          3D

 35 37  0  0  0  0  0  0  0  0999 V2000
   68.5865   31.0905  -51.1924 O   0  0  0  0  0  0  0  0  0  0  0  0
   71.5797   28.6472  -55.9801 C   0  0  0  0  0  0  0  0  0  0  0  0
   69.8970   28.2482  -54.1738 C   0  0  2  0  0  0  0  0  0  0  0  0
   68.7720   33.2288  -49.5166 O   0  0  0  0  0  0  0  0  0  0  0  0
   69.4901   29.5337  -53.5020 C   0  0  1  0  0  0  0  0  0  0  0  0
   74.9535   27.7107  -53.2467 N   0  0  0  0  0  0  0  0  0  0  0  0
   67.9912   29.5359  -53.7141 C   0  0  1  0  0  0  0  0  0  0  0  0
   67.8235   28.6652  -54.9052 C   0  0  1  0  0  0  0  0  0  0  0  0
   72.6746   27.7212  -52.8165 N   0  0  0  0  0  0  0  0  0  0  0  0
   67.6538   29.5415  -56.1301 C   0  0  0  0  0  0  0  0  0  0  0  0
   66.8163   33.2391  -51.4151 O   0  0  0  0  0  0  0  0  0  0  0  0
   69.3295   33.4865  -52.0196 O   0  0  0  0  0  0  0  0  0  0  0  0
   72.9211   28.6107  -56.1225 N   0  0  0  0  0  0  0  0  0  0  0  0
   66.0981   31.3203  -51.9158 O   0  0  0  0  0  0  0  0  0  0  0  0
   67.2294   30.8238  -55.7636 O   0  0  0  0  0  0  0  0  0  0  0  0
   71.2404   28.3218  -54.7192 N   0  0  0  0  0  0  0  0  0  0  0  0
   75.8694   28.2469  -55.3975 N   0  0  0  0  0  0  0  0  0  0  0  0
   74.7702   28.0721  -54.5317 C   0  0  0  0  0  0  0  0  0  0  0  0
   69.7656   29.4901  -52.1518 O   0  0  0  0  0  0  0  0  0  0  0  0
   73.9355   27.5327  -52.3860 C   0  0  0  0  0  0  0  0  0  0  0  0
   72.4038   28.0823  -54.0822 C   0  0  0  0  0  0  0  0  0  0  0  0
   73.4652   28.2593  -54.9483 C   0  0  0  0  0  0  0  0  0  0  0  0
   67.3118   29.1397  -52.5909 O   0  0  0  0  0  0  0  0  0  0  0  0
   65.1514   29.6429  -56.2564 O   0  0  0  0  0  0  0  0  0  0  0  0
   62.9660   30.8821  -57.4893 O   0  0  0  0  0  0  0  0  0  0  0  0
   63.7025   31.4176  -55.0701 O   0  0  0  0  0  0  0  0  0  0  0  0
   67.8163   32.8932  -57.2296 O   0  0  0  0  0  0  0  0  0  0  0  0
   66.9019   30.7730  -58.4954 O   0  0  0  0  0  0  0  0  0  0  0  0
   68.9439   27.9037  -55.0798 O   0  0  0  0  0  0  0  0  0  0  0  0
   66.5829   29.7276  -49.9488 O   0  0  0  0  0  0  0  0  0  0  0  0
   65.2575   32.3315  -56.9774 O   0  0  0  0  0  0  0  0  0  0  0  0
   67.0916   30.2885  -51.4211 P   0  0  1  0  0  5  0  0  0  0  0  0
   68.3932   32.7491  -51.1099 P   0  0  2  0  0  5  0  0  0  0  0  0
   66.8354   31.7455  -57.0995 P   0  0  1  0  0  5  0  0  0  0  0  0
   64.2654   31.0958  -56.4270 P   0  0  1  0  0  5  0  0  0  0  0  0
 32  1  1  0
  1 33  1  0
  2 13  2  0
 16  2  1  0
  3  5  1  0
  3 16  1  6
 29  3  1  0
 33  4  1  1
  7  5  1  0
  5 19  1  1
 18  6  1  0
 20  6  2  0
  8  7  1  0
  7 23  1  1
  8 10  1  6
  8 29  1  0
  9 20  1  0
 21  9  2  0
 15 10  1  0
 33 11  1  0
 33 12  2  0
 22 13  1  0
 32 14  2  0
 34 15  1  0
 16 21  1  0
 18 17  1  0
 22 18  2  0
 21 22  1  0
 23 32  1  0
 35 24  1  1
 35 25  1  0
 35 26  2  0
 34 27  2  0
 34 28  1  6
 32 30  1  1
 31 34  1  0
 31 35  1  0
M  END
$$$$
