
     RDKit          3D

 35 37  0  0  0  0  0  0  0  0999 V2000
   73.8563   21.3884  -50.5985 O   0  0  0  0  0  0  0  0  0  0  0  0
   68.5122   20.0435  -44.6343 C   0  0  0  0  0  0  0  0  0  0  0  0
   69.5215   19.9265  -46.9192 C   0  0  2  0  0  0  0  0  0  0  0  0
   72.5840   19.7334  -52.3470 O   0  0  0  0  0  0  0  0  0  0  0  0
   70.2883   21.1878  -47.2196 C   0  0  1  0  0  0  0  0  0  0  0  0
   64.5671   21.2533  -46.2784 N   0  0  0  0  0  0  0  0  0  0  0  0
   71.6704   20.6486  -47.5208 C   0  0  1  0  0  0  0  0  0  0  0  0
   71.6796   19.3445  -46.8108 C   0  0  1  0  0  0  0  0  0  0  0  0
   66.5435   20.7854  -47.3980 N   0  0  0  0  0  0  0  0  0  0  0  0
   72.4061   19.5125  -45.4913 C   0  0  0  0  0  0  0  0  0  0  0  0
   72.9678   18.8666  -49.7915 O   0  0  0  0  0  0  0  0  0  0  0  0
   74.9323   19.1382  -51.4678 O   0  0  0  0  0  0  0  0  0  0  0  0
   67.3153   20.3359  -44.0838 N   0  0  0  0  0  0  0  0  0  0  0  0
   71.5933   22.6549  -50.3905 O   0  0  0  0  0  0  0  0  0  0  0  0
   72.1838   20.7904  -44.9655 O   0  0  0  0  0  0  0  0  0  0  0  0
   68.4446   20.1575  -45.9734 N   0  0  0  0  0  0  0  0  0  0  0  0
   64.3708   21.1379  -43.8909 N   0  0  0  0  0  0  0  0  0  0  0  0
   65.1251   21.0132  -45.0758 C   0  0  0  0  0  0  0  0  0  0  0  0
   69.7828   21.8144  -48.3389 O   0  0  0  0  0  0  0  0  0  0  0  0
   65.2478   21.1469  -47.4334 C   0  0  0  0  0  0  0  0  0  0  0  0
   67.1766   20.5278  -46.2410 C   0  0  0  0  0  0  0  0  0  0  0  0
   66.4574   20.6436  -45.0675 C   0  0  0  0  0  0  0  0  0  0  0  0
   71.9181   20.5908  -48.8682 O   0  0  0  0  0  0  0  0  0  0  0  0
   70.8875   20.8394  -41.4524 O   0  0  0  0  0  0  0  0  0  0  0  0
   69.9424   23.1748  -42.6706 O   0  0  0  0  0  0  0  0  0  0  0  0
   71.4741   23.1986  -40.5886 O   0  0  0  0  0  0  0  0  0  0  0  0
   72.3855   19.9159  -42.5221 O   0  0  0  0  0  0  0  0  0  0  0  0
   74.5947   20.8132  -43.6392 O   0  0  0  0  0  0  0  0  0  0  0  0
   70.3974   18.9573  -46.5432 O   0  0  0  0  0  0  0  0  0  0  0  0
   73.2885   23.0054  -48.4814 O   0  0  0  0  0  0  0  0  0  0  0  0
   72.6159   22.5168  -42.8519 O   0  0  0  0  0  0  0  0  0  0  0  0
   72.6193   21.9275  -49.5451 P   0  0  1  0  0  5  0  0  0  0  0  0
   73.6551   19.7830  -51.0195 P   0  0  2  0  0  5  0  0  0  0  0  0
   72.9080   20.9746  -43.4721 P   0  0  1  0  0  5  0  0  0  0  0  0
   71.2521   22.4555  -41.8770 P   0  0  1  0  0  5  0  0  0  0  0  0
 32  1  1  0
  1 33  1  0
  2 13  2  0
 16  2  1  0
  3  5  1  0
  3 16  1  1
 29  3  1  0
 33  4  1  6
  7  5  1  0
  5 19  1  6
 18  6  1  0
 20  6  2  0
  8  7  1  0
  7 23  1  6
  8 10  1  1
  8 29  1  0
  9 20  1  0
 21  9  2  0
 15 10  1  0
 33 11  1  0
 33 12  2  0
 22 13  1  0
 32 14  2  0
 34 15  1  0
 16 21  1  0
 18 17  1  0
 22 18  2  0
 21 22  1  0
 23 32  1  0
 35 24  1  1
 35 25  1  0
 35 26  2  0
 34 27  2  0
 34 28  1  6
 32 30  1  1
 31 34  1  0
 31 35  1  0
M  END
$$$$
