
     RDKit          3D

 35 37  0  0  0  0  0  0  0  0999 V2000
   65.2621   31.3969  -52.1279 O   0  0  0  0  0  0  0  0  0  0  0  0
   70.2634   26.5482  -54.9378 C   0  0  0  0  0  0  0  0  0  0  0  0
   68.0774   27.7284  -54.6516 C   0  0  2  0  0  0  0  0  0  0  0  0
   62.9176   30.0854  -52.5732 O   0  0  0  0  0  0  0  0  0  0  0  0
   67.9435   28.8463  -53.6508 C   0  0  1  0  0  0  0  0  0  0  0  0
   69.6339   24.1744  -51.2365 N   0  0  0  0  0  0  0  0  0  0  0  0
   67.4688   29.9898  -54.5218 C   0  0  1  0  0  0  0  0  0  0  0  0
   67.9491   29.6001  -55.8717 C   0  0  1  0  0  0  0  0  0  0  0  0
   68.2636   25.7751  -52.2051 N   0  0  0  0  0  0  0  0  0  0  0  0
   69.2289   30.3547  -56.1709 C   0  0  0  0  0  0  0  0  0  0  0  0
   64.2716   29.5669  -50.2652 O   0  0  0  0  0  0  0  0  0  0  0  0
   65.1501   28.7977  -52.5846 O   0  0  0  0  0  0  0  0  0  0  0  0
   70.9826   25.6058  -54.2930 N   0  0  0  0  0  0  0  0  0  0  0  0
   66.8084   32.6172  -53.8275 O   0  0  0  0  0  0  0  0  0  0  0  0
   70.1157   29.5521  -56.8977 O   0  0  0  0  0  0  0  0  0  0  0  0
   69.1154   26.7851  -54.2769 N   0  0  0  0  0  0  0  0  0  0  0  0
   71.7447   23.5334  -52.1777 N   0  0  0  0  0  0  0  0  0  0  0  0
   70.5645   24.3047  -52.2021 C   0  0  0  0  0  0  0  0  0  0  0  0
   66.9792   28.5503  -52.7109 O   0  0  0  0  0  0  0  0  0  0  0  0
   68.4945   24.8887  -51.2195 C   0  0  0  0  0  0  0  0  0  0  0  0
   69.1393   25.9669  -53.2061 C   0  0  0  0  0  0  0  0  0  0  0  0
   70.3026   25.2221  -53.2028 C   0  0  0  0  0  0  0  0  0  0  0  0
   66.1177   30.1952  -54.4106 O   0  0  0  0  0  0  0  0  0  0  0  0
   73.6682   29.7993  -54.6838 O   0  0  0  0  0  0  0  0  0  0  0  0
   73.3735   32.4401  -53.8059 O   0  0  0  0  0  0  0  0  0  0  0  0
   74.3773   31.8299  -56.1084 O   0  0  0  0  0  0  0  0  0  0  0  0
   72.6813   29.1610  -56.6956 O   0  0  0  0  0  0  0  0  0  0  0  0
   71.8928   30.8956  -58.5131 O   0  0  0  0  0  0  0  0  0  0  0  0
   68.2296   28.2634  -55.8919 O   0  0  0  0  0  0  0  0  0  0  0  0
   64.3350   32.3566  -54.5025 O   0  0  0  0  0  0  0  0  0  0  0  0
   71.7871   31.4886  -55.8532 O   0  0  0  0  0  0  0  0  0  0  0  0
   65.6442   31.6484  -53.7775 P   0  0  1  0  0  5  0  0  0  0  0  0
   64.4746   29.9416  -51.8895 P   0  0  2  0  0  5  0  0  0  0  0  0
   71.6409   30.2289  -56.9668 P   0  0  1  0  0  5  0  0  0  0  0  0
   73.3048   31.4061  -55.1433 P   0  0  1  0  0  5  0  0  0  0  0  0
 32  1  1  0
  1 33  1  0
  2 13  2  0
 16  2  1  0
  3  5  1  0
  3 16  1  1
 29  3  1  0
 33  4  1  6
  7  5  1  0
  5 19  1  1
 18  6  1  0
 20  6  2  0
  8  7  1  0
  7 23  1  6
  8 10  1  1
  8 29  1  0
  9 20  1  0
 21  9  2  0
 15 10  1  0
 33 11  1  0
 33 12  2  0
 22 13  1  0
 32 14  2  0
 34 15  1  0
 16 21  1  0
 18 17  1  0
 22 18  2  0
 21 22  1  0
 23 32  1  0
 35 24  1  1
 35 25  1  0
 35 26  2  0
 34 27  2  0
 34 28  1  6
 32 30  1  6
 31 34  1  0
 31 35  1  0
M  END
$$$$
