
     RDKit          3D

 35 37  0  0  0  0  0  0  0  0999 V2000
   66.6188   30.2385  -57.8423 O   0  0  0  0  0  0  0  0  0  0  0  0
   70.5998   27.2206  -52.5445 C   0  0  0  0  0  0  0  0  0  0  0  0
   70.4791   28.2582  -54.8165 C   0  0  2  0  0  0  0  0  0  0  0  0
   65.1713   32.1860  -56.6066 O   0  0  0  0  0  0  0  0  0  0  0  0
   69.3215   27.9961  -55.7441 C   0  0  1  0  0  0  0  0  0  0  0  0
   71.6426   23.2540  -54.2502 N   0  0  0  0  0  0  0  0  0  0  0  0
   68.8212   29.3974  -56.0227 C   0  0  1  0  0  0  0  0  0  0  0  0
   69.3031   30.1620  -54.8445 C   0  0  1  0  0  0  0  0  0  0  0  0
   71.2251   25.2576  -55.3410 N   0  0  0  0  0  0  0  0  0  0  0  0
   68.1592   30.3172  -53.8624 C   0  0  0  0  0  0  0  0  0  0  0  0
   66.1875   32.7035  -59.0821 O   0  0  0  0  0  0  0  0  0  0  0  0
   67.7027   32.4892  -56.9842 O   0  0  0  0  0  0  0  0  0  0  0  0
   70.8595   26.0083  -52.0117 N   0  0  0  0  0  0  0  0  0  0  0  0
   68.5115   30.8107  -59.5330 O   0  0  0  0  0  0  0  0  0  0  0  0
   68.6108   30.8853  -52.6657 O   0  0  0  0  0  0  0  0  0  0  0  0
   70.6885   27.1637  -53.8860 N   0  0  0  0  0  0  0  0  0  0  0  0
   71.5611   23.0357  -51.8632 N   0  0  0  0  0  0  0  0  0  0  0  0
   71.4427   23.8068  -53.0379 C   0  0  0  0  0  0  0  0  0  0  0  0
   69.7549   27.4183  -56.9184 O   0  0  0  0  0  0  0  0  0  0  0  0
   71.5404   23.9506  -55.3961 C   0  0  0  0  0  0  0  0  0  0  0  0
   71.0096   25.8865  -54.1732 C   0  0  0  0  0  0  0  0  0  0  0  0
   71.1201   25.1510  -53.0093 C   0  0  0  0  0  0  0  0  0  0  0  0
   69.2426   29.8615  -57.2422 O   0  0  0  0  0  0  0  0  0  0  0  0
   68.4255   30.9145  -50.2607 O   0  0  0  0  0  0  0  0  0  0  0  0
   68.8651   33.2179  -48.7335 O   0  0  0  0  0  0  0  0  0  0  0  0
   70.7298   32.0637  -50.1017 O   0  0  0  0  0  0  0  0  0  0  0  0
   70.6002   32.4429  -53.2921 O   0  0  0  0  0  0  0  0  0  0  0  0
   68.2134   33.1898  -54.1163 O   0  0  0  0  0  0  0  0  0  0  0  0
   70.3039   29.4693  -54.2246 O   0  0  0  0  0  0  0  0  0  0  0  0
   67.9775   28.3111  -59.2052 O   0  0  0  0  0  0  0  0  0  0  0  0
   68.9205   33.3656  -51.4882 O   0  0  0  0  0  0  0  0  0  0  0  0
   68.1437   29.7884  -58.4766 P   0  0  1  0  0  5  0  0  0  0  0  0
   66.4948   31.8938  -57.6434 P   0  0  2  0  0  5  0  0  0  0  0  0
   69.1388   32.4535  -52.8913 P   0  0  1  0  0  5  0  0  0  0  0  0
   69.2655   32.4009  -50.1599 P   0  0  1  0  0  5  0  0  0  0  0  0
 32  1  1  0
  1 33  1  0
  2 13  2  0
 16  2  1  0
  3  5  1  0
  3 16  1  1
 29  3  1  0
 33  4  1  1
  7  5  1  0
  5 19  1  6
 18  6  1  0
 20  6  2  0
  8  7  1  0
  7 23  1  6
  8 10  1  1
  8 29  1  0
  9 20  1  0
 21  9  2  0
 15 10  1  0
 33 11  1  0
 33 12  2  0
 22 13  1  0
 32 14  2  0
 34 15  1  0
 16 21  1  0
 18 17  1  0
 22 18  2  0
 21 22  1  0
 23 32  1  0
 35 24  1  6
 35 25  1  0
 35 26  2  0
 34 27  2  0
 34 28  1  6
 32 30  1  6
 31 34  1  0
 31 35  1  0
M  END
$$$$
