
     RDKit          3D

 35 37  0  0  0  0  0  0  0  0999 V2000
   66.2179   29.4248  -51.5998 O   0  0  0  0  0  0  0  0  0  0  0  0
   72.2623   29.8904  -55.2968 C   0  0  0  0  0  0  0  0  0  0  0  0
   70.2795   28.5829  -54.5141 C   0  0  2  0  0  0  0  0  0  0  0  0
   67.3853   28.1127  -49.5188 O   0  0  0  0  0  0  0  0  0  0  0  0
   69.3364   29.5883  -53.9067 C   0  0  1  0  0  0  0  0  0  0  0  0
   74.8017   28.2754  -52.0297 N   0  0  0  0  0  0  0  0  0  0  0  0
   68.0715   29.3509  -54.7037 C   0  0  1  0  0  0  0  0  0  0  0  0
   68.5802   28.7465  -55.9610 C   0  0  1  0  0  0  0  0  0  0  0  0
   72.5720   27.8486  -52.5040 N   0  0  0  0  0  0  0  0  0  0  0  0
   68.6430   29.8208  -57.0283 C   0  0  0  0  0  0  0  0  0  0  0  0
   67.7522   27.1323  -52.0354 O   0  0  0  0  0  0  0  0  0  0  0  0
   65.4557   27.0162  -50.8289 O   0  0  0  0  0  0  0  0  0  0  0  0
   73.5497   30.0677  -54.9333 N   0  0  0  0  0  0  0  0  0  0  0  0
   65.9437   30.8625  -53.7507 O   0  0  0  0  0  0  0  0  0  0  0  0
   67.5009   30.6284  -56.9823 O   0  0  0  0  0  0  0  0  0  0  0  0
   71.6599   29.0290  -54.4566 N   0  0  0  0  0  0  0  0  0  0  0  0
   76.1448   29.7653  -53.3443 N   0  0  0  0  0  0  0  0  0  0  0  0
   74.9205   29.1207  -53.0721 C   0  0  0  0  0  0  0  0  0  0  0  0
   69.1053   29.3036  -52.5777 O   0  0  0  0  0  0  0  0  0  0  0  0
   73.6546   27.6391  -51.7328 C   0  0  0  0  0  0  0  0  0  0  0  0
   72.6046   28.6758  -53.5625 C   0  0  0  0  0  0  0  0  0  0  0  0
   73.7935   29.3183  -53.8483 C   0  0  0  0  0  0  0  0  0  0  0  0
   67.1603   28.5963  -54.0106 O   0  0  0  0  0  0  0  0  0  0  0  0
   65.0126   32.4567  -60.8526 O   0  0  0  0  0  0  0  0  0  0  0  0
   66.1169   30.2058  -59.6094 O   0  0  0  0  0  0  0  0  0  0  0  0
   67.5544   32.0270  -60.7489 O   0  0  0  0  0  0  0  0  0  0  0  0
   68.1619   33.1043  -56.5251 O   0  0  0  0  0  0  0  0  0  0  0  0
   69.0664   32.0351  -58.7550 O   0  0  0  0  0  0  0  0  0  0  0  0
   69.8449   28.2698  -55.7635 O   0  0  0  0  0  0  0  0  0  0  0  0
   64.4054   28.8061  -53.5365 O   0  0  0  0  0  0  0  0  0  0  0  0
   66.4365   32.6987  -58.4707 O   0  0  0  0  0  0  0  0  0  0  0  0
   65.9224   29.4203  -53.2859 P   0  0  1  0  0  5  0  0  0  0  0  0
   66.6426   27.9073  -51.0414 P   0  0  2  0  0  5  0  0  0  0  0  0
   67.7903   32.1391  -57.6327 P   0  0  1  0  0  5  0  0  0  0  0  0
   66.3131   31.8579  -59.9171 P   0  0  1  0  0  5  0  0  0  0  0  0
 32  1  1  0
  1 33  1  0
  2 13  2  0
 16  2  1  0
  3  5  1  0
  3 16  1  6
 29  3  1  0
 33  4  1  1
  7  5  1  0
  5 19  1  1
 18  6  1  0
 20  6  2  0
  8  7  1  0
  7 23  1  1
  8 10  1  6
  8 29  1  0
  9 20  1  0
 21  9  2  0
 15 10  1  0
 33 11  1  0
 33 12  2  0
 22 13  1  0
 32 14  2  0
 34 15  1  0
 16 21  1  0
 18 17  1  0
 22 18  2  0
 21 22  1  0
 23 32  1  0
 35 24  1  6
 35 25  1  0
 35 26  2  0
 34 27  2  0
 34 28  1  6
 32 30  1  1
 31 34  1  0
 31 35  1  0
M  END
$$$$
