
     RDKit          3D

 35 37  0  0  0  0  0  0  0  0999 V2000
   83.0363   49.7131  -34.3540 O   0  0  0  0  0  0  0  0  0  0  0  0
   87.1388   50.6656  -38.8305 C   0  0  0  0  0  0  0  0  0  0  0  0
   86.2617   51.7067  -36.7329 C   0  0  2  0  0  0  0  0  0  0  0  0
   83.5748   47.2615  -35.4097 O   0  0  0  0  0  0  0  0  0  0  0  0
   85.1855   50.8354  -36.1397 C   0  0  1  0  0  0  0  0  0  0  0  0
   84.6354   53.3164  -41.3676 N   0  0  0  0  0  0  0  0  0  0  0  0
   85.7304   50.5664  -34.7532 C   0  0  1  0  0  0  0  0  0  0  0  0
   87.1912   50.7689  -34.9261 C   0  0  1  0  0  0  0  0  0  0  0  0
   84.7995   53.2232  -39.0561 N   0  0  0  0  0  0  0  0  0  0  0  0
   87.8568   49.4157  -35.0780 C   0  0  0  0  0  0  0  0  0  0  0  0
   82.2090   47.3838  -33.0542 O   0  0  0  0  0  0  0  0  0  0  0  0
   84.7209   48.0181  -33.2288 O   0  0  0  0  0  0  0  0  0  0  0  0
   86.9679   50.8031  -40.1620 N   0  0  0  0  0  0  0  0  0  0  0  0
   83.9008   50.0709  -31.9264 O   0  0  0  0  0  0  0  0  0  0  0  0
   88.9633   49.3125  -34.2272 O   0  0  0  0  0  0  0  0  0  0  0  0
   86.3606   51.5441  -38.1721 N   0  0  0  0  0  0  0  0  0  0  0  0
   85.8959   51.8792  -42.8159 N   0  0  0  0  0  0  0  0  0  0  0  0
   85.5336   52.3251  -41.5281 C   0  0  0  0  0  0  0  0  0  0  0  0
   83.9949   51.5240  -36.0426 O   0  0  0  0  0  0  0  0  0  0  0  0
   84.2603   53.7732  -40.1595 C   0  0  0  0  0  0  0  0  0  0  0  0
   85.7022   52.2304  -39.1272 C   0  0  0  0  0  0  0  0  0  0  0  0
   86.0722   51.7774  -40.3786 C   0  0  0  0  0  0  0  0  0  0  0  0
   85.1321   51.3535  -33.8032 O   0  0  0  0  0  0  0  0  0  0  0  0
   88.7470   46.7265  -38.2520 O   0  0  0  0  0  0  0  0  0  0  0  0
   90.7038   48.3044  -37.0221 O   0  0  0  0  0  0  0  0  0  0  0  0
   88.1854   48.8826  -36.9513 O   0  0  0  0  0  0  0  0  0  0  0  0
   91.0917   47.8160  -34.3050 O   0  0  0  0  0  0  0  0  0  0  0  0
   89.1265   46.9911  -32.7587 O   0  0  0  0  0  0  0  0  0  0  0  0
   87.4247   51.4870  -36.0643 O   0  0  0  0  0  0  0  0  0  0  0  0
   82.5381   51.9990  -32.9592 O   0  0  0  0  0  0  0  0  0  0  0  0
   88.9427   46.8478  -35.4759 O   0  0  0  0  0  0  0  0  0  0  0  0
   83.6763   50.8256  -33.2212 P   0  0  1  0  0  5  0  0  0  0  0  0
   83.4129   48.1346  -33.9524 P   0  0  2  0  0  5  0  0  0  0  0  0
   89.5805   47.7609  -34.2079 P   0  0  1  0  0  5  0  0  0  0  0  0
   89.1245   47.7091  -36.9040 P   0  0  1  0  0  5  0  0  0  0  0  0
 32  1  1  0
  1 33  1  0
  2 13  2  0
 16  2  1  0
  3  5  1  0
  3 16  1  6
 29  3  1  0
 33  4  1  6
  7  5  1  0
  5 19  1  1
 18  6  1  0
 20  6  2  0
  8  7  1  0
  7 23  1  1
  8 10  1  6
  8 29  1  0
  9 20  1  0
 21  9  2  0
 15 10  1  0
 33 11  1  0
 33 12  2  0
 22 13  1  0
 32 14  2  0
 34 15  1  0
 16 21  1  0
 18 17  1  0
 22 18  2  0
 21 22  1  0
 23 32  1  0
 35 24  1  6
 35 25  1  0
 35 26  2  0
 34 27  2  0
 34 28  1  1
 32 30  1  1
 31 34  1  0
 31 35  1  0
M  END
$$$$
