
     RDKit          3D

 35 37  0  0  0  0  0  0  0  0999 V2000
   65.2664   29.5533  -50.8882 O   0  0  0  0  0  0  0  0  0  0  0  0
   71.7845   28.2514  -55.4059 C   0  0  0  0  0  0  0  0  0  0  0  0
   69.8872   27.7759  -53.8478 C   0  0  2  0  0  0  0  0  0  0  0  0
   63.4460   27.6223  -51.4983 O   0  0  0  0  0  0  0  0  0  0  0  0
   69.3310   29.0717  -53.3180 C   0  0  1  0  0  0  0  0  0  0  0  0
   74.7875   27.3427  -52.2615 N   0  0  0  0  0  0  0  0  0  0  0  0
   67.8782   28.9809  -53.7333 C   0  0  1  0  0  0  0  0  0  0  0  0
   67.9195   28.0393  -54.8808 C   0  0  1  0  0  0  0  0  0  0  0  0
   72.4721   27.2894  -52.1400 N   0  0  0  0  0  0  0  0  0  0  0  0
   67.8826   28.8376  -56.1686 C   0  0  0  0  0  0  0  0  0  0  0  0
   64.9885   28.6271  -53.5082 O   0  0  0  0  0  0  0  0  0  0  0  0
   63.1272   30.0292  -52.3627 O   0  0  0  0  0  0  0  0  0  0  0  0
   73.1334   28.2503  -55.3681 N   0  0  0  0  0  0  0  0  0  0  0  0
   67.8067   29.4060  -50.3462 O   0  0  0  0  0  0  0  0  0  0  0  0
   67.8154   30.2088  -55.8966 O   0  0  0  0  0  0  0  0  0  0  0  0
   71.2889   27.8928  -54.2073 N   0  0  0  0  0  0  0  0  0  0  0  0
   75.9673   27.9437  -54.2612 N   0  0  0  0  0  0  0  0  0  0  0  0
   74.7675   27.7251  -53.5533 C   0  0  0  0  0  0  0  0  0  0  0  0
   69.4164   29.1162  -51.9426 O   0  0  0  0  0  0  0  0  0  0  0  0
   73.6689   27.1230  -51.5479 C   0  0  0  0  0  0  0  0  0  0  0  0
   72.3630   27.6690  -53.4244 C   0  0  0  0  0  0  0  0  0  0  0  0
   73.5252   27.8889  -54.1376 C   0  0  0  0  0  0  0  0  0  0  0  0
   67.0672   28.6096  -52.6919 O   0  0  0  0  0  0  0  0  0  0  0  0
   67.3769   32.3154  -54.6256 O   0  0  0  0  0  0  0  0  0  0  0  0
   66.5821   34.4715  -56.2227 O   0  0  0  0  0  0  0  0  0  0  0  0
   68.9849   34.2152  -55.3047 O   0  0  0  0  0  0  0  0  0  0  0  0
   67.9128   30.2960  -58.4964 O   0  0  0  0  0  0  0  0  0  0  0  0
   65.8319   31.4373  -57.3557 O   0  0  0  0  0  0  0  0  0  0  0  0
   69.0875   27.3316  -54.8532 O   0  0  0  0  0  0  0  0  0  0  0  0
   67.0749   31.3061  -51.9257 O   0  0  0  0  0  0  0  0  0  0  0  0
   68.3084   32.5735  -57.2382 O   0  0  0  0  0  0  0  0  0  0  0  0
   66.8611   29.7241  -51.4868 P   0  0  1  0  0  5  0  0  0  0  0  0
   64.2112   29.0338  -52.0763 P   0  0  2  0  0  5  0  0  0  0  0  0
   67.4976   31.0938  -57.2767 P   0  0  1  0  0  5  0  0  0  0  0  0
   67.8444   33.4058  -55.8575 P   0  0  1  0  0  5  0  0  0  0  0  0
 32  1  1  0
  1 33  1  0
  2 13  2  0
 16  2  1  0
  3  5  1  0
  3 16  1  6
 29  3  1  0
 33  4  1  1
  7  5  1  0
  5 19  1  1
 18  6  1  0
 20  6  2  0
  8  7  1  0
  7 23  1  1
  8 10  1  6
  8 29  1  0
  9 20  1  0
 21  9  2  0
 15 10  1  0
 33 11  1  0
 33 12  2  0
 22 13  1  0
 32 14  2  0
 34 15  1  0
 16 21  1  0
 18 17  1  0
 22 18  2  0
 21 22  1  0
 23 32  1  0
 35 24  1  1
 35 25  1  0
 35 26  2  0
 34 27  2  0
 34 28  1  6
 32 30  1  6
 31 34  1  0
 31 35  1  0
M  END
$$$$
