
     RDKit          3D

 35 37  0  0  0  0  0  0  0  0999 V2000
   69.8388   26.6499  -54.7437 O   0  0  0  0  0  0  0  0  0  0  0  0
   69.5710   25.3423  -47.3462 C   0  0  0  0  0  0  0  0  0  0  0  0
   70.0516   24.5485  -49.6683 C   0  0  2  0  0  0  0  0  0  0  0  0
   69.0999   29.1917  -55.3826 O   0  0  0  0  0  0  0  0  0  0  0  0
   69.3162   25.2704  -50.7671 C   0  0  1  0  0  0  0  0  0  0  0  0
   66.1084   22.5866  -46.9629 N   0  0  0  0  0  0  0  0  0  0  0  0
   70.4562   25.7824  -51.6215 C   0  0  1  0  0  0  0  0  0  0  0  0
   71.5917   25.8294  -50.6659 C   0  0  1  0  0  0  0  0  0  0  0  0
   67.5520   22.8906  -48.7523 N   0  0  0  0  0  0  0  0  0  0  0  0
   71.7651   27.2558  -50.1838 C   0  0  0  0  0  0  0  0  0  0  0  0
   71.2631   28.8423  -53.7618 O   0  0  0  0  0  0  0  0  0  0  0  0
   68.8445   28.3321  -52.9664 O   0  0  0  0  0  0  0  0  0  0  0  0
   68.6776   25.0875  -46.3674 N   0  0  0  0  0  0  0  0  0  0  0  0
   72.2197   26.8193  -53.7089 O   0  0  0  0  0  0  0  0  0  0  0  0
   71.8524   27.2968  -48.7876 O   0  0  0  0  0  0  0  0  0  0  0  0
   69.3153   24.5689  -48.4172 N   0  0  0  0  0  0  0  0  0  0  0  0
   66.3060   23.8174  -44.9140 N   0  0  0  0  0  0  0  0  0  0  0  0
   66.7434   23.5137  -46.2197 C   0  0  0  0  0  0  0  0  0  0  0  0
   68.5466   24.3931  -51.5011 O   0  0  0  0  0  0  0  0  0  0  0  0
   66.4904   22.2650  -48.2117 C   0  0  0  0  0  0  0  0  0  0  0  0
   68.2414   23.8276  -48.0797 C   0  0  0  0  0  0  0  0  0  0  0  0
   67.8308   24.1414  -46.7987 C   0  0  0  0  0  0  0  0  0  0  0  0
   70.6521   25.0083  -52.7361 O   0  0  0  0  0  0  0  0  0  0  0  0
   70.5530   31.8777  -47.6199 O   0  0  0  0  0  0  0  0  0  0  0  0
   68.6262   30.1875  -48.7432 O   0  0  0  0  0  0  0  0  0  0  0  0
   69.8459   32.0208  -50.0969 O   0  0  0  0  0  0  0  0  0  0  0  0
   70.2757   28.7565  -47.3182 O   0  0  0  0  0  0  0  0  0  0  0  0
   72.8333   29.3821  -47.2836 O   0  0  0  0  0  0  0  0  0  0  0  0
   71.3137   25.0458  -49.5822 O   0  0  0  0  0  0  0  0  0  0  0  0
   71.7909   24.8311  -55.2914 O   0  0  0  0  0  0  0  0  0  0  0  0
   71.2770   29.9146  -49.4589 O   0  0  0  0  0  0  0  0  0  0  0  0
   71.1724   25.7945  -54.0955 P   0  0  1  0  0  5  0  0  0  0  0  0
   69.7565   28.2107  -54.1503 P   0  0  2  0  0  5  0  0  0  0  0  0
   71.5097   28.8203  -48.1954 P   0  0  1  0  0  5  0  0  0  0  0  0
   70.0825   31.0051  -49.0135 P   0  0  1  0  0  5  0  0  0  0  0  0
 32  1  1  0
  1 33  1  0
  2 13  2  0
 16  2  1  0
  3  5  1  0
  3 16  1  1
 29  3  1  0
 33  4  1  6
  7  5  1  0
  5 19  1  6
 18  6  1  0
 20  6  2  0
  8  7  1  0
  7 23  1  6
  8 10  1  1
  8 29  1  0
  9 20  1  0
 21  9  2  0
 15 10  1  0
 33 11  1  0
 33 12  2  0
 22 13  1  0
 32 14  2  0
 34 15  1  0
 16 21  1  0
 18 17  1  0
 22 18  2  0
 21 22  1  0
 23 32  1  0
 35 24  1  1
 35 25  1  0
 35 26  2  0
 34 27  2  0
 34 28  1  1
 32 30  1  6
 31 34  1  0
 31 35  1  0
M  END
$$$$
