
     RDKit          3D

 35 37  0  0  0  0  0  0  0  0999 V2000
   88.1906   48.9997  -39.4627 O   0  0  0  0  0  0  0  0  0  0  0  0
   83.7774   46.6622  -36.3586 C   0  0  0  0  0  0  0  0  0  0  0  0
   86.0784   47.3689  -37.0362 C   0  0  2  0  0  0  0  0  0  0  0  0
   90.5224   47.9772  -40.4282 O   0  0  0  0  0  0  0  0  0  0  0  0
   86.3316   48.8523  -37.1040 C   0  0  1  0  0  0  0  0  0  0  0  0
   82.3013   46.9420  -40.5387 N   0  0  0  0  0  0  0  0  0  0  0  0
   87.4885   49.0158  -36.1415 C   0  0  1  0  0  0  0  0  0  0  0  0
   87.3531   47.8316  -35.2560 C   0  0  1  0  0  0  0  0  0  0  0  0
   84.4222   47.3608  -39.6993 N   0  0  0  0  0  0  0  0  0  0  0  0
   86.6705   48.2580  -33.9718 C   0  0  0  0  0  0  0  0  0  0  0  0
   88.3409   46.3466  -40.3217 O   0  0  0  0  0  0  0  0  0  0  0  0
   89.5716   47.1488  -38.1805 O   0  0  0  0  0  0  0  0  0  0  0  0
   82.5836   46.4453  -36.9493 N   0  0  0  0  0  0  0  0  0  0  0  0
   87.6506   51.1286  -38.0681 O   0  0  0  0  0  0  0  0  0  0  0  0
   87.0135   47.3979  -32.9223 O   0  0  0  0  0  0  0  0  0  0  0  0
   84.6840   47.0441  -37.2767 N   0  0  0  0  0  0  0  0  0  0  0  0
   80.4724   46.2456  -39.1523 N   0  0  0  0  0  0  0  0  0  0  0  0
   81.8204   46.6234  -39.3211 C   0  0  0  0  0  0  0  0  0  0  0  0
   86.7283   49.2249  -38.3708 O   0  0  0  0  0  0  0  0  0  0  0  0
   83.5788   47.3076  -40.7464 C   0  0  0  0  0  0  0  0  0  0  0  0
   84.0242   47.0590  -38.4519 C   0  0  0  0  0  0  0  0  0  0  0  0
   82.7077   46.6862  -38.2626 C   0  0  0  0  0  0  0  0  0  0  0  0
   88.6886   49.1329  -36.7942 O   0  0  0  0  0  0  0  0  0  0  0  0
   84.5281   47.4254  -29.7450 O   0  0  0  0  0  0  0  0  0  0  0  0
   82.0211   47.7406  -30.9480 O   0  0  0  0  0  0  0  0  0  0  0  0
   83.7842   49.6289  -30.8618 O   0  0  0  0  0  0  0  0  0  0  0  0
   85.4636   45.3107  -32.7898 O   0  0  0  0  0  0  0  0  0  0  0  0
   85.8726   46.6200  -30.5421 O   0  0  0  0  0  0  0  0  0  0  0  0
   86.5690   46.8914  -35.8618 O   0  0  0  0  0  0  0  0  0  0  0  0
   90.1345   50.7059  -38.6088 O   0  0  0  0  0  0  0  0  0  0  0  0
   84.2930   47.6514  -32.5115 O   0  0  0  0  0  0  0  0  0  0  0  0
   88.6848   50.0273  -38.1858 P   0  0  1  0  0  5  0  0  0  0  0  0
   89.1169   47.6097  -39.5328 P   0  0  2  0  0  5  0  0  0  0  0  0
   85.6614   46.7047  -32.2294 P   0  0  1  0  0  5  0  0  0  0  0  0
   83.6629   48.1402  -31.0356 P   0  0  1  0  0  5  0  0  0  0  0  0
 32  1  1  0
  1 33  1  0
  2 13  2  0
 16  2  1  0
  3  5  1  0
  3 16  1  1
 29  3  1  0
 33  4  1  6
  7  5  1  0
  5 19  1  6
 18  6  1  0
 20  6  2  0
  8  7  1  0
  7 23  1  6
  8 10  1  1
  8 29  1  0
  9 20  1  0
 21  9  2  0
 15 10  1  0
 33 11  1  0
 33 12  2  0
 22 13  1  0
 32 14  2  0
 34 15  1  0
 16 21  1  0
 18 17  1  0
 22 18  2  0
 21 22  1  0
 23 32  1  0
 35 24  1  1
 35 25  1  0
 35 26  2  0
 34 27  2  0
 34 28  1  1
 32 30  1  6
 31 34  1  0
 31 35  1  0
M  END
$$$$
