
     RDKit          3D

 35 37  0  0  0  0  0  0  0  0999 V2000
   49.5265   30.0610   -1.9740 O   0  0  0  0  0  0  0  0  0  0  0  0
   44.5359   26.9701    1.7100 C   0  0  0  0  0  0  0  0  0  0  0  0
   46.4718   26.5589    0.1814 C   0  0  2  0  0  0  0  0  0  0  0  0
   48.8401   32.5208   -2.9191 O   0  0  0  0  0  0  0  0  0  0  0  0
   46.4288   27.2748   -1.1432 C   0  0  1  0  0  0  0  0  0  0  0  0
   42.1832   23.6926   -0.1482 N   0  0  0  0  0  0  0  0  0  0  0  0
   47.7189   28.0661   -1.1125 C   0  0  1  0  0  0  0  0  0  0  0  0
   47.9999   28.1860    0.3406 C   0  0  1  0  0  0  0  0  0  0  0  0
   44.3199   24.4370   -0.6566 N   0  0  0  0  0  0  0  0  0  0  0  0
   47.5498   29.5539    0.8133 C   0  0  0  0  0  0  0  0  0  0  0  0
   48.3457   30.3480   -4.4886 O   0  0  0  0  0  0  0  0  0  0  0  0
   50.7557   31.1935   -4.0194 O   0  0  0  0  0  0  0  0  0  0  0  0
   43.3048   26.4604    1.9234 N   0  0  0  0  0  0  0  0  0  0  0  0
   51.1774   28.1157   -1.4652 O   0  0  0  0  0  0  0  0  0  0  0  0
   46.1747   29.5574    1.0738 O   0  0  0  0  0  0  0  0  0  0  0  0
   45.1419   26.3084    0.7072 N   0  0  0  0  0  0  0  0  0  0  0  0
   40.8486   24.6701    1.5884 N   0  0  0  0  0  0  0  0  0  0  0  0
   42.0376   24.6043    0.8332 C   0  0  0  0  0  0  0  0  0  0  0  0
   46.4628   26.3759   -2.1881 O   0  0  0  0  0  0  0  0  0  0  0  0
   43.2984   23.5936   -0.8932 C   0  0  0  0  0  0  0  0  0  0  0  0
   44.2571   25.3754    0.3031 C   0  0  0  0  0  0  0  0  0  0  0  0
   43.1018   25.4584    1.0556 C   0  0  0  0  0  0  0  0  0  0  0  0
   48.7045   27.4730   -1.8589 O   0  0  0  0  0  0  0  0  0  0  0  0
   47.4527   32.0875    2.1345 O   0  0  0  0  0  0  0  0  0  0  0  0
   45.5983   32.8199    4.0983 O   0  0  0  0  0  0  0  0  0  0  0  0
   45.9178   34.1484    1.9041 O   0  0  0  0  0  0  0  0  0  0  0  0
   46.4573   31.7548   -0.2927 O   0  0  0  0  0  0  0  0  0  0  0  0
   44.1937   30.4489   -0.6154 O   0  0  0  0  0  0  0  0  0  0  0  0
   47.2870   27.2440    1.0263 O   0  0  0  0  0  0  0  0  0  0  0  0
   50.3991   28.3554   -3.9102 O   0  0  0  0  0  0  0  0  0  0  0  0
   44.7169   31.8249    1.6803 O   0  0  0  0  0  0  0  0  0  0  0  0
   49.9656   28.4419   -2.3146 P   0  0  1  0  0  5  0  0  0  0  0  0
   49.4229   30.9806   -3.3664 P   0  0  2  0  0  5  0  0  0  0  0  0
   45.4351   30.9189    0.4508 P   0  0  1  0  0  5  0  0  0  0  0  0
   45.9014   32.7418    2.4356 P   0  0  1  0  0  5  0  0  0  0  0  0
 32  1  1  0
  1 33  1  0
  2 13  2  0
 16  2  1  0
  3  5  1  0
  3 16  1  1
 29  3  1  0
 33  4  1  1
  7  5  1  0
  5 19  1  6
 18  6  1  0
 20  6  2  0
  8  7  1  0
  7 23  1  6
  8 10  1  1
  8 29  1  0
  9 20  1  0
 21  9  2  0
 15 10  1  0
 33 11  1  0
 33 12  2  0
 22 13  1  0
 32 14  2  0
 34 15  1  0
 16 21  1  0
 18 17  1  0
 22 18  2  0
 21 22  1  0
 23 32  1  0
 35 24  1  1
 35 25  1  0
 35 26  2  0
 34 27  2  0
 34 28  1  6
 32 30  1  6
 31 34  1  0
 31 35  1  0
M  END
$$$$
