
     RDKit          3D

 35 37  0  0  0  0  0  0  0  0999 V2000
   68.6171   29.1831  -53.2786 O   0  0  0  0  0  0  0  0  0  0  0  0
   68.5861   35.2449  -55.5398 C   0  0  0  0  0  0  0  0  0  0  0  0
   70.1029   33.3230  -55.0308 C   0  0  2  0  0  0  0  0  0  0  0  0
   70.2714   30.3237  -51.4408 O   0  0  0  0  0  0  0  0  0  0  0  0
   69.4048   32.2138  -54.2881 C   0  0  1  0  0  0  0  0  0  0  0  0
   69.8222   37.3881  -51.8507 N   0  0  0  0  0  0  0  0  0  0  0  0
   69.6250   31.0338  -55.2103 C   0  0  1  0  0  0  0  0  0  0  0  0
   69.8473   31.6800  -56.5285 C   0  0  1  0  0  0  0  0  0  0  0  0
   70.5195   35.3279  -52.6554 N   0  0  0  0  0  0  0  0  0  0  0  0
   68.5581   31.6232  -57.3233 C   0  0  0  0  0  0  0  0  0  0  0  0
   67.7382   29.6736  -50.6735 O   0  0  0  0  0  0  0  0  0  0  0  0
   68.2251   31.6157  -52.3270 O   0  0  0  0  0  0  0  0  0  0  0  0
   68.2503   36.4279  -54.9839 N   0  0  0  0  0  0  0  0  0  0  0  0
   70.0882   27.6940  -54.8237 O   0  0  0  0  0  0  0  0  0  0  0  0
   68.7453   30.9149  -58.5159 O   0  0  0  0  0  0  0  0  0  0  0  0
   69.4954   34.6161  -54.7726 N   0  0  0  0  0  0  0  0  0  0  0  0
   68.2108   38.7484  -52.9930 N   0  0  0  0  0  0  0  0  0  0  0  0
   68.9902   37.5775  -52.8933 C   0  0  0  0  0  0  0  0  0  0  0  0
   70.0170   31.9737  -53.0762 O   0  0  0  0  0  0  0  0  0  0  0  0
   70.5836   36.2879  -51.7147 C   0  0  0  0  0  0  0  0  0  0  0  0
   69.7161   35.4374  -53.7269 C   0  0  0  0  0  0  0  0  0  0  0  0
   68.9433   36.5761  -53.8455 C   0  0  0  0  0  0  0  0  0  0  0  0
   70.6376   30.2197  -54.7719 O   0  0  0  0  0  0  0  0  0  0  0  0
   64.2164   29.9488  -59.1627 O   0  0  0  0  0  0  0  0  0  0  0  0
   65.3810   31.3854  -61.2630 O   0  0  0  0  0  0  0  0  0  0  0  0
   66.0664   31.7083  -58.7917 O   0  0  0  0  0  0  0  0  0  0  0  0
   68.7509   28.3119  -58.5182 O   0  0  0  0  0  0  0  0  0  0  0  0
   66.7986   29.4854  -57.1971 O   0  0  0  0  0  0  0  0  0  0  0  0
   70.1770   32.9931  -56.3474 O   0  0  0  0  0  0  0  0  0  0  0  0
   71.1709   28.4956  -52.6268 O   0  0  0  0  0  0  0  0  0  0  0  0
   66.8537   29.4746  -59.9237 O   0  0  0  0  0  0  0  0  0  0  0  0
   70.1858   28.8897  -53.8979 P   0  0  1  0  0  5  0  0  0  0  0  0
   68.6523   30.2235  -51.9704 P   0  0  2  0  0  5  0  0  0  0  0  0
   67.8325   29.5169  -58.5495 P   0  0  1  0  0  5  0  0  0  0  0  0
   65.6580   30.6410  -59.7691 P   0  0  1  0  0  5  0  0  0  0  0  0
 32  1  1  0
  1 33  1  0
  2 13  2  0
 16  2  1  0
  3  5  1  0
  3 16  1  6
 29  3  1  0
 33  4  1  1
  7  5  1  0
  5 19  1  1
 18  6  1  0
 20  6  2  0
  8  7  1  0
  7 23  1  1
  8 10  1  6
  8 29  1  0
  9 20  1  0
 21  9  2  0
 15 10  1  0
 33 11  1  0
 33 12  2  0
 22 13  1  0
 32 14  2  0
 34 15  1  0
 16 21  1  0
 18 17  1  0
 22 18  2  0
 21 22  1  0
 23 32  1  0
 35 24  1  1
 35 25  1  0
 35 26  2  0
 34 27  2  0
 34 28  1  1
 32 30  1  1
 31 34  1  0
 31 35  1  0
M  END
$$$$
