
     RDKit          3D

 17 18  0  0  0  0  0  0  0  0999 V2000
  -19.1707   20.2649   -7.5421 C   0  0  0  0  0  0  0  0  0  0  0  0
  -17.9502   20.8657   -5.8057 N   0  0  0  0  0  0  0  0  0  0  0  0
  -19.2219   21.2979   -5.6144 C   0  0  0  0  0  0  0  0  0  0  0  0
  -25.1350   19.0217   -8.5951 C   0  0  0  0  0  0  0  0  0  0  0  0
  -25.5070   18.4906  -10.9041 C   0  0  0  0  0  0  0  0  0  0  0  0
  -23.3667   20.5576  -13.0538 C   0  0  0  0  0  0  0  0  0  0  0  0
  -24.4133   19.7560  -12.5765 O   0  0  0  0  0  0  0  0  0  0  0  0
  -24.6566   19.5085  -11.2325 C   0  0  0  0  0  0  0  0  0  0  0  0
  -24.0475   20.2797  -10.2652 C   0  0  0  0  0  0  0  0  0  0  0  0
  -24.2734   20.0538   -8.9054 C   0  0  0  0  0  0  0  0  0  0  0  0
  -23.6239   20.8763   -7.8690 C   0  0  0  0  0  0  0  0  0  0  0  0
  -22.2392   20.5829   -7.7452 O   0  0  0  0  0  0  0  0  0  0  0  0
  -21.4254   21.2295   -6.8279 C   0  0  0  0  0  0  0  0  0  0  0  0
  -20.0019   20.9323   -6.6893 C   0  0  0  0  0  0  0  0  0  0  0  0
  -17.9479   20.2516   -6.9655 N   0  0  0  0  0  0  0  0  0  0  0  0
  -21.9789   22.1006   -6.1065 O   0  0  0  0  0  0  0  0  0  0  0  0
  -25.7449   18.2495   -9.5613 C   0  0  0  0  0  0  0  0  0  0  0  0
 14  1  1  0
  1 15  2  0
  3  2  1  0
  2 15  1  0
 14  3  2  0
 10  4  2  0
  4 17  1  0
  8  5  1  0
 17  5  2  0
  7  6  1  0
  8  7  1  0
  9  8  2  0
 10  9  1  0
 11 10  1  0
 12 11  1  0
 13 12  1  0
 13 14  1  0
 13 16  2  0
M  END
$$$$
