
     RDKit          3D

 17 18  0  0  0  0  0  0  0  0999 V2000
  -18.3050   16.5524  -13.9411 C   0  0  0  0  0  0  0  0  0  0  0  0
  -17.0391   17.9998  -12.8601 N   0  0  0  0  0  0  0  0  0  0  0  0
  -18.3298   18.4113  -12.7878 C   0  0  0  0  0  0  0  0  0  0  0  0
  -23.3306   18.9735  -10.7201 C   0  0  0  0  0  0  0  0  0  0  0  0
  -24.5987   20.8141   -9.8504 C   0  0  0  0  0  0  0  0  0  0  0  0
  -25.9295   23.2661  -10.2973 C   0  0  0  0  0  0  0  0  0  0  0  0
  -25.3054   22.5312  -11.3153 O   0  0  0  0  0  0  0  0  0  0  0  0
  -24.6387   21.3304  -11.1149 C   0  0  0  0  0  0  0  0  0  0  0  0
  -24.0371   20.6871  -12.1758 C   0  0  0  0  0  0  0  0  0  0  0  0
  -23.3594   19.4777  -12.0041 C   0  0  0  0  0  0  0  0  0  0  0  0
  -22.7153   18.7876  -13.1361 C   0  0  0  0  0  0  0  0  0  0  0  0
  -21.3184   18.6228  -12.9354 O   0  0  0  0  0  0  0  0  0  0  0  0
  -20.5881   17.6418  -13.5881 C   0  0  0  0  0  0  0  0  0  0  0  0
  -19.1384   17.5196  -13.4578 C   0  0  0  0  0  0  0  0  0  0  0  0
  -17.0531   16.8865  -13.5550 N   0  0  0  0  0  0  0  0  0  0  0  0
  -21.2432   16.8461  -14.3117 O   0  0  0  0  0  0  0  0  0  0  0  0
  -23.9318   19.6157   -9.6580 C   0  0  0  0  0  0  0  0  0  0  0  0
 14  1  1  0
  1 15  2  0
  3  2  1  0
  2 15  1  0
 14  3  2  0
 10  4  2  0
  4 17  1  0
  8  5  1  0
 17  5  2  0
  7  6  1  0
  8  7  1  0
  9  8  2  0
 10  9  1  0
 11 10  1  0
 12 11  1  0
 13 12  1  0
 13 14  1  0
 13 16  2  0
M  END
$$$$
