
     RDKit          3D

 17 18  0  0  0  0  0  0  0  0999 V2000
  -12.7971   11.7633  -22.7763 C   0  0  0  0  0  0  0  0  0  0  0  0
  -13.0494    9.6999  -22.0382 N   0  0  0  0  0  0  0  0  0  0  0  0
  -13.0898    9.6851  -23.3942 C   0  0  0  0  0  0  0  0  0  0  0  0
  -13.4011    8.6494  -28.9397 C   0  0  0  0  0  0  0  0  0  0  0  0
  -11.7234    7.4852  -30.1976 C   0  0  0  0  0  0  0  0  0  0  0  0
   -8.4433    9.0611  -29.7252 C   0  0  0  0  0  0  0  0  0  0  0  0
   -9.5198    8.3419  -30.2635 O   0  0  0  0  0  0  0  0  0  0  0  0
  -10.8297    8.4461  -29.8164 C   0  0  0  0  0  0  0  0  0  0  0  0
  -11.2038    9.4990  -29.0084 C   0  0  0  0  0  0  0  0  0  0  0  0
  -12.5146    9.6297  -28.5435 C   0  0  0  0  0  0  0  0  0  0  0  0
  -12.9177   10.7539  -27.6797 C   0  0  0  0  0  0  0  0  0  0  0  0
  -12.9451   10.3887  -26.3069 O   0  0  0  0  0  0  0  0  0  0  0  0
  -12.9254   11.3312  -25.2905 C   0  0  0  0  0  0  0  0  0  0  0  0
  -12.9338   10.9661  -23.8761 C   0  0  0  0  0  0  0  0  0  0  0  0
  -12.8736   10.9546  -21.6955 N   0  0  0  0  0  0  0  0  0  0  0  0
  -12.8997   12.5383  -25.6482 O   0  0  0  0  0  0  0  0  0  0  0  0
  -13.0285    7.5958  -29.7477 C   0  0  0  0  0  0  0  0  0  0  0  0
 14  1  1  0
  1 15  2  0
  3  2  1  0
  2 15  1  0
 14  3  2  0
 10  4  2  0
  4 17  1  0
  8  5  1  0
 17  5  2  0
  7  6  1  0
  8  7  1  0
  9  8  2  0
 10  9  1  0
 11 10  1  0
 12 11  1  0
 13 12  1  0
 13 14  1  0
 13 16  2  0
M  END
$$$$
