
     RDKit          3D

 17 18  0  0  0  0  0  0  0  0999 V2000
  -12.1762   10.2185  -22.8107 C   0  0  0  0  0  0  0  0  0  0  0  0
  -13.1432   10.7940  -20.9134 N   0  0  0  0  0  0  0  0  0  0  0  0
  -13.9916   11.0697  -21.9355 C   0  0  0  0  0  0  0  0  0  0  0  0
  -12.4163   11.5101  -28.7125 C   0  0  0  0  0  0  0  0  0  0  0  0
  -11.2359    9.9638  -30.1152 C   0  0  0  0  0  0  0  0  0  0  0  0
  -12.4716    6.5975  -29.8212 C   0  0  0  0  0  0  0  0  0  0  0  0
  -11.5349    7.6403  -29.7892 O   0  0  0  0  0  0  0  0  0  0  0  0
  -11.8327    8.9463  -29.4254 C   0  0  0  0  0  0  0  0  0  0  0  0
  -12.7109    9.1939  -28.3916 C   0  0  0  0  0  0  0  0  0  0  0  0
  -13.0293   10.4975  -28.0036 C   0  0  0  0  0  0  0  0  0  0  0  0
  -13.9676   10.7655  -26.8989 C   0  0  0  0  0  0  0  0  0  0  0  0
  -13.3418   10.6530  -25.6283 O   0  0  0  0  0  0  0  0  0  0  0  0
  -14.0283   10.8715  -24.4439 C   0  0  0  0  0  0  0  0  0  0  0  0
  -13.4059   10.7172  -23.1314 C   0  0  0  0  0  0  0  0  0  0  0  0
  -12.0660   10.2861  -21.4649 N   0  0  0  0  0  0  0  0  0  0  0  0
  -15.2348   11.2154  -24.5527 O   0  0  0  0  0  0  0  0  0  0  0  0
  -11.5378   11.2641  -29.7467 C   0  0  0  0  0  0  0  0  0  0  0  0
 14  1  1  0
  1 15  2  0
  3  2  1  0
  2 15  1  0
 14  3  2  0
 10  4  2  0
  4 17  1  0
  8  5  1  0
 17  5  2  0
  7  6  1  0
  8  7  1  0
  9  8  2  0
 10  9  1  0
 11 10  1  0
 12 11  1  0
 13 12  1  0
 13 14  1  0
 13 16  2  0
M  END
$$$$
