
     RDKit          3D

 17 18  0  0  0  0  0  0  0  0999 V2000
  -13.4675   10.9848  -22.1056 C   0  0  0  0  0  0  0  0  0  0  0  0
  -12.0473   12.6564  -22.3398 N   0  0  0  0  0  0  0  0  0  0  0  0
  -12.2878   12.1152  -23.5604 C   0  0  0  0  0  0  0  0  0  0  0  0
  -12.2917   10.7821  -28.6191 C   0  0  0  0  0  0  0  0  0  0  0  0
  -11.0025    9.6338  -30.2839 C   0  0  0  0  0  0  0  0  0  0  0  0
  -11.2146    5.9990  -29.7714 C   0  0  0  0  0  0  0  0  0  0  0  0
  -11.0076    7.2690  -30.3282 O   0  0  0  0  0  0  0  0  0  0  0  0
  -11.4413    8.4546  -29.7510 C   0  0  0  0  0  0  0  0  0  0  0  0
  -12.2935    8.4258  -28.6674 C   0  0  0  0  0  0  0  0  0  0  0  0
  -12.7463    9.6026  -28.0661 C   0  0  0  0  0  0  0  0  0  0  0  0
  -13.6573    9.5753  -26.9077 C   0  0  0  0  0  0  0  0  0  0  0  0
  -13.1865   10.3853  -25.8396 O   0  0  0  0  0  0  0  0  0  0  0  0
  -13.6615   10.2504  -24.5442 C   0  0  0  0  0  0  0  0  0  0  0  0
  -13.1739   11.0678  -23.4362 C   0  0  0  0  0  0  0  0  0  0  0  0
  -12.7652   11.9616  -21.4887 N   0  0  0  0  0  0  0  0  0  0  0  0
  -14.5486    9.3754  -24.3627 O   0  0  0  0  0  0  0  0  0  0  0  0
  -11.4394   10.8126  -29.7028 C   0  0  0  0  0  0  0  0  0  0  0  0
 14  1  1  0
  1 15  2  0
  3  2  1  0
  2 15  1  0
 14  3  2  0
 10  4  2  0
  4 17  1  0
  8  5  1  0
 17  5  2  0
  7  6  1  0
  8  7  1  0
  9  8  2  0
 10  9  1  0
 11 10  1  0
 12 11  1  0
 13 12  1  0
 13 14  1  0
 13 16  2  0
M  END
$$$$
