
     RDKit          3D

 17 18  0  0  0  0  0  0  0  0999 V2000
  -17.9511   16.3637  -13.5958 C   0  0  0  0  0  0  0  0  0  0  0  0
  -16.7412   18.2061  -13.5094 N   0  0  0  0  0  0  0  0  0  0  0  0
  -18.0467   18.5343  -13.3403 C   0  0  0  0  0  0  0  0  0  0  0  0
  -23.9040   20.2154  -11.7701 C   0  0  0  0  0  0  0  0  0  0  0  0
  -23.7152   20.9910   -9.5085 C   0  0  0  0  0  0  0  0  0  0  0  0
  -22.4301   20.8469   -6.9964 C   0  0  0  0  0  0  0  0  0  0  0  0
  -22.0712   20.0497   -8.0925 O   0  0  0  0  0  0  0  0  0  0  0  0
  -22.6895   20.1052   -9.3340 C   0  0  0  0  0  0  0  0  0  0  0  0
  -22.2674   19.2805  -10.3552 C   0  0  0  0  0  0  0  0  0  0  0  0
  -22.8706   19.3145  -11.6147 C   0  0  0  0  0  0  0  0  0  0  0  0
  -22.4217   18.4342  -12.7084 C   0  0  0  0  0  0  0  0  0  0  0  0
  -21.0132   18.4836  -12.8890 O   0  0  0  0  0  0  0  0  0  0  0  0
  -20.2741   17.3669  -13.2475 C   0  0  0  0  0  0  0  0  0  0  0  0
  -18.8207   17.3959  -13.3910 C   0  0  0  0  0  0  0  0  0  0  0  0
  -16.7128   16.9027  -13.6598 N   0  0  0  0  0  0  0  0  0  0  0  0
  -20.9241   16.3072  -13.4475 O   0  0  0  0  0  0  0  0  0  0  0  0
  -24.3274   21.0409  -10.7498 C   0  0  0  0  0  0  0  0  0  0  0  0
 14  1  1  0
  1 15  2  0
  3  2  1  0
  2 15  1  0
 14  3  2  0
 10  4  2  0
  4 17  1  0
  8  5  1  0
 17  5  2  0
  7  6  1  0
  8  7  1  0
  9  8  2  0
 10  9  1  0
 11 10  1  0
 12 11  1  0
 13 12  1  0
 13 14  1  0
 13 16  2  0
M  END
$$$$
