
     RDKit          3D

 17 18  0  0  0  0  0  0  0  0999 V2000
  -14.1622   11.2788  -23.0371 C   0  0  0  0  0  0  0  0  0  0  0  0
  -12.0705   11.5459  -22.3897 N   0  0  0  0  0  0  0  0  0  0  0  0
  -12.0763   11.1128  -23.6754 C   0  0  0  0  0  0  0  0  0  0  0  0
  -11.5007   10.0450  -29.4590 C   0  0  0  0  0  0  0  0  0  0  0  0
   -9.8512    8.3954  -30.0155 C   0  0  0  0  0  0  0  0  0  0  0  0
   -8.5970    5.9316  -29.3748 C   0  0  0  0  0  0  0  0  0  0  0  0
   -9.8384    6.3316  -28.8602 O   0  0  0  0  0  0  0  0  0  0  0  0
  -10.3998    7.5849  -29.0619 C   0  0  0  0  0  0  0  0  0  0  0  0
  -11.4838    7.9871  -28.3106 C   0  0  0  0  0  0  0  0  0  0  0  0
  -12.0694    9.2423  -28.4916 C   0  0  0  0  0  0  0  0  0  0  0  0
  -13.2282    9.6751  -27.6900 C   0  0  0  0  0  0  0  0  0  0  0  0
  -12.8406   10.1701  -26.4159 O   0  0  0  0  0  0  0  0  0  0  0  0
  -13.7651   10.4819  -25.4311 C   0  0  0  0  0  0  0  0  0  0  0  0
  -13.3753   10.9394  -24.0998 C   0  0  0  0  0  0  0  0  0  0  0  0
  -13.3303   11.6364  -22.0332 N   0  0  0  0  0  0  0  0  0  0  0  0
  -14.9783   10.3506  -25.7420 O   0  0  0  0  0  0  0  0  0  0  0  0
  -10.4166    9.6444  -30.2113 C   0  0  0  0  0  0  0  0  0  0  0  0
 14  1  1  0
  1 15  2  0
  3  2  1  0
  2 15  1  0
 14  3  2  0
 10  4  2  0
  4 17  1  0
  8  5  1  0
 17  5  2  0
  7  6  1  0
  8  7  1  0
  9  8  2  0
 10  9  1  0
 11 10  1  0
 12 11  1  0
 13 12  1  0
 13 14  1  0
 13 16  2  0
M  END
$$$$
