
     RDKit          3D

 17 18  0  0  0  0  0  0  0  0999 V2000
  -18.9515   18.4986  -14.1672 C   0  0  0  0  0  0  0  0  0  0  0  0
  -17.2640   17.1622  -14.6491 N   0  0  0  0  0  0  0  0  0  0  0  0
  -17.9917   16.6018  -13.6506 C   0  0  0  0  0  0  0  0  0  0  0  0
  -23.3319   19.7418  -11.8732 C   0  0  0  0  0  0  0  0  0  0  0  0
  -25.6633   20.0464  -11.3999 C   0  0  0  0  0  0  0  0  0  0  0  0
  -28.0057   19.1598  -10.0911 C   0  0  0  0  0  0  0  0  0  0  0  0
  -26.7920   18.4588  -10.0585 O   0  0  0  0  0  0  0  0  0  0  0  0
  -25.6238   18.8914  -10.6708 C   0  0  0  0  0  0  0  0  0  0  0  0
  -24.4610   18.1625  -10.5370 C   0  0  0  0  0  0  0  0  0  0  0  0
  -23.2708   18.5734  -11.1418 C   0  0  0  0  0  0  0  0  0  0  0  0
  -22.0262   17.7965  -11.0007 C   0  0  0  0  0  0  0  0  0  0  0  0
  -21.2080   17.8848  -12.1590 O   0  0  0  0  0  0  0  0  0  0  0  0
  -20.0485   17.1389  -12.3039 C   0  0  0  0  0  0  0  0  0  0  0  0
  -19.0522   17.4219  -13.3341 C   0  0  0  0  0  0  0  0  0  0  0  0
  -17.8600   18.2951  -14.9386 N   0  0  0  0  0  0  0  0  0  0  0  0
  -19.8900   16.1891  -11.4925 O   0  0  0  0  0  0  0  0  0  0  0  0
  -24.4940   20.4719  -12.0080 C   0  0  0  0  0  0  0  0  0  0  0  0
 14  1  1  0
  1 15  2  0
  3  2  1  0
  2 15  1  0
 14  3  2  0
 10  4  2  0
  4 17  1  0
  8  5  1  0
 17  5  2  0
  7  6  1  0
  8  7  1  0
  9  8  2  0
 10  9  1  0
 11 10  1  0
 12 11  1  0
 13 12  1  0
 13 14  1  0
 13 16  2  0
M  END
$$$$
