
     RDKit          3D

 17 18  0  0  0  0  0  0  0  0999 V2000
   -7.4396   11.7487  -31.8400 C   0  0  0  0  0  0  0  0  0  0  0  0
   -7.8898   13.2973  -30.3350 N   0  0  0  0  0  0  0  0  0  0  0  0
   -8.8304   12.3232  -30.2520 C   0  0  0  0  0  0  0  0  0  0  0  0
  -12.6849    9.2780  -28.8593 C   0  0  0  0  0  0  0  0  0  0  0  0
  -13.6823    7.7025  -27.3510 C   0  0  0  0  0  0  0  0  0  0  0  0
  -13.3281    4.2988  -28.4614 C   0  0  0  0  0  0  0  0  0  0  0  0
  -13.2091    5.3986  -27.5999 O   0  0  0  0  0  0  0  0  0  0  0  0
  -13.0319    6.7079  -28.0254 C   0  0  0  0  0  0  0  0  0  0  0  0
  -12.2165    6.9812  -29.1032 C   0  0  0  0  0  0  0  0  0  0  0  0
  -12.0194    8.2887  -29.5536 C   0  0  0  0  0  0  0  0  0  0  0  0
  -11.1484    8.5842  -30.7054 C   0  0  0  0  0  0  0  0  0  0  0  0
  -10.3532    9.7417  -30.4898 O   0  0  0  0  0  0  0  0  0  0  0  0
   -9.3716   10.1415  -31.3833 C   0  0  0  0  0  0  0  0  0  0  0  0
   -8.5672   11.3446  -31.1851 C   0  0  0  0  0  0  0  0  0  0  0  0
   -7.0710   12.9285  -31.2921 N   0  0  0  0  0  0  0  0  0  0  0  0
   -9.2016    9.4071  -32.3920 O   0  0  0  0  0  0  0  0  0  0  0  0
  -13.5007    9.0063  -27.7812 C   0  0  0  0  0  0  0  0  0  0  0  0
 14  1  1  0
  1 15  2  0
  3  2  1  0
  2 15  1  0
 14  3  2  0
 10  4  2  0
  4 17  1  0
  8  5  1  0
 17  5  2  0
  7  6  1  0
  8  7  1  0
  9  8  2  0
 10  9  1  0
 11 10  1  0
 12 11  1  0
 13 12  1  0
 13 14  1  0
 13 16  2  0
M  END
$$$$
