
     RDKit          3D

 17 18  0  0  0  0  0  0  0  0999 V2000
  -13.1719    9.3333  -22.7951 C   0  0  0  0  0  0  0  0  0  0  0  0
  -13.1103   10.2621  -20.7952 N   0  0  0  0  0  0  0  0  0  0  0  0
  -12.6891   11.1708  -21.7104 C   0  0  0  0  0  0  0  0  0  0  0  0
  -13.2613    9.9164  -28.2282 C   0  0  0  0  0  0  0  0  0  0  0  0
  -12.2177    8.8123  -30.0840 C   0  0  0  0  0  0  0  0  0  0  0  0
   -9.7224    7.9196  -31.2028 C   0  0  0  0  0  0  0  0  0  0  0  0
   -9.8946    9.0815  -30.4371 O   0  0  0  0  0  0  0  0  0  0  0  0
  -11.0307    9.3636  -29.6912 C   0  0  0  0  0  0  0  0  0  0  0  0
  -10.9467   10.1815  -28.5843 C   0  0  0  0  0  0  0  0  0  0  0  0
  -12.0730   10.4828  -27.8149 C   0  0  0  0  0  0  0  0  0  0  0  0
  -11.9865   11.3567  -26.6311 C   0  0  0  0  0  0  0  0  0  0  0  0
  -12.3715   10.6825  -25.4411 O   0  0  0  0  0  0  0  0  0  0  0  0
  -12.3340   11.2960  -24.1985 C   0  0  0  0  0  0  0  0  0  0  0  0
  -12.7200   10.6098  -22.9681 C   0  0  0  0  0  0  0  0  0  0  0  0
  -13.3925    9.1729  -21.4708 N   0  0  0  0  0  0  0  0  0  0  0  0
  -11.9450   12.4935  -24.1781 O   0  0  0  0  0  0  0  0  0  0  0  0
  -13.3470    9.0982  -29.3350 C   0  0  0  0  0  0  0  0  0  0  0  0
 14  1  1  0
  1 15  2  0
  3  2  1  0
  2 15  1  0
 14  3  2  0
 10  4  2  0
  4 17  1  0
  8  5  1  0
 17  5  2  0
  7  6  1  0
  8  7  1  0
  9  8  2  0
 10  9  1  0
 11 10  1  0
 12 11  1  0
 13 12  1  0
 13 14  1  0
 13 16  2  0
M  END
$$$$
