
     RDKit          3D

 17 18  0  0  0  0  0  0  0  0999 V2000
  -17.8803   16.2023  -13.8684 C   0  0  0  0  0  0  0  0  0  0  0  0
  -16.9768   18.2126  -13.9604 N   0  0  0  0  0  0  0  0  0  0  0  0
  -18.3203   18.3449  -13.8253 C   0  0  0  0  0  0  0  0  0  0  0  0
  -23.0657   20.0038  -12.7106 C   0  0  0  0  0  0  0  0  0  0  0  0
  -24.6340   20.6072  -10.9993 C   0  0  0  0  0  0  0  0  0  0  0  0
  -26.3356   19.7617   -8.8885 C   0  0  0  0  0  0  0  0  0  0  0  0
  -25.8530   18.9096   -9.8919 O   0  0  0  0  0  0  0  0  0  0  0  0
  -24.9122   19.2784  -10.8434 C   0  0  0  0  0  0  0  0  0  0  0  0
  -24.2828   18.3159  -11.6041 C   0  0  0  0  0  0  0  0  0  0  0  0
  -23.3320   18.6574  -12.5689 C   0  0  0  0  0  0  0  0  0  0  0  0
  -22.6575   17.6309  -13.3837 C   0  0  0  0  0  0  0  0  0  0  0  0
  -21.2641   17.8792  -13.5080 O   0  0  0  0  0  0  0  0  0  0  0  0
  -20.3375   16.8543  -13.6215 C   0  0  0  0  0  0  0  0  0  0  0  0
  -18.9046   17.0988  -13.7658 C   0  0  0  0  0  0  0  0  0  0  0  0
  -16.7413   16.9216  -13.9834 N   0  0  0  0  0  0  0  0  0  0  0  0
  -20.7954   15.6816  -13.5941 O   0  0  0  0  0  0  0  0  0  0  0  0
  -23.6943   20.9677  -11.9506 C   0  0  0  0  0  0  0  0  0  0  0  0
 14  1  1  0
  1 15  2  0
  3  2  1  0
  2 15  1  0
 14  3  2  0
 10  4  2  0
  4 17  1  0
  8  5  1  0
 17  5  2  0
  7  6  1  0
  8  7  1  0
  9  8  2  0
 10  9  1  0
 11 10  1  0
 12 11  1  0
 13 12  1  0
 13 14  1  0
 13 16  2  0
M  END
$$$$
