
     RDKit          3D

 17 18  0  0  0  0  0  0  0  0999 V2000
  -18.8065   16.6227  -14.0456 C   0  0  0  0  0  0  0  0  0  0  0  0
  -17.4580   18.1861  -13.2689 N   0  0  0  0  0  0  0  0  0  0  0  0
  -18.7408   18.5928  -13.0967 C   0  0  0  0  0  0  0  0  0  0  0  0
  -23.6709   21.0894  -11.9948 C   0  0  0  0  0  0  0  0  0  0  0  0
  -24.4691   21.5207   -9.7747 C   0  0  0  0  0  0  0  0  0  0  0  0
  -24.1252   18.6800   -7.5956 C   0  0  0  0  0  0  0  0  0  0  0  0
  -24.7799   19.7126   -8.2819 O   0  0  0  0  0  0  0  0  0  0  0  0
  -24.4055   20.1769   -9.5353 C   0  0  0  0  0  0  0  0  0  0  0  0
  -23.9823   19.2912  -10.5036 C   0  0  0  0  0  0  0  0  0  0  0  0
  -23.5995   19.7294  -11.7735 C   0  0  0  0  0  0  0  0  0  0  0  0
  -23.1466   18.7852  -12.8108 C   0  0  0  0  0  0  0  0  0  0  0  0
  -21.7310   18.7634  -12.9310 O   0  0  0  0  0  0  0  0  0  0  0  0
  -21.0579   17.7253  -13.5563 C   0  0  0  0  0  0  0  0  0  0  0  0
  -19.6004   17.6290  -13.5760 C   0  0  0  0  0  0  0  0  0  0  0  0
  -17.5265   17.0055  -13.8381 N   0  0  0  0  0  0  0  0  0  0  0  0
  -21.7727   16.8531  -14.1167 O   0  0  0  0  0  0  0  0  0  0  0  0
  -24.0940   21.9765  -11.0275 C   0  0  0  0  0  0  0  0  0  0  0  0
 14  1  1  0
  1 15  2  0
  3  2  1  0
  2 15  1  0
 14  3  2  0
 10  4  2  0
  4 17  1  0
  8  5  1  0
 17  5  2  0
  7  6  1  0
  8  7  1  0
  9  8  2  0
 10  9  1  0
 11 10  1  0
 12 11  1  0
 13 12  1  0
 13 14  1  0
 13 16  2  0
M  END
$$$$
