
     RDKit          3D

 17 18  0  0  0  0  0  0  0  0999 V2000
  -18.3993   18.3170  -13.7823 C   0  0  0  0  0  0  0  0  0  0  0  0
  -18.8727   16.1669  -13.6449 N   0  0  0  0  0  0  0  0  0  0  0  0
  -19.9885   16.8783  -13.3460 C   0  0  0  0  0  0  0  0  0  0  0  0
  -24.9171   18.8053  -11.8257 C   0  0  0  0  0  0  0  0  0  0  0  0
  -25.9359   18.7247   -9.6560 C   0  0  0  0  0  0  0  0  0  0  0  0
  -23.8260   20.4027   -7.1756 C   0  0  0  0  0  0  0  0  0  0  0  0
  -24.9417   19.9040   -7.8629 O   0  0  0  0  0  0  0  0  0  0  0  0
  -24.9330   19.5334   -9.2006 C   0  0  0  0  0  0  0  0  0  0  0  0
  -23.9303   19.9788  -10.0359 C   0  0  0  0  0  0  0  0  0  0  0  0
  -23.8958   19.6222  -11.3860 C   0  0  0  0  0  0  0  0  0  0  0  0
  -22.8254   20.0965  -12.2815 C   0  0  0  0  0  0  0  0  0  0  0  0
  -21.9477   19.0474  -12.6661 O   0  0  0  0  0  0  0  0  0  0  0  0
  -20.6793   19.2916  -13.1694 C   0  0  0  0  0  0  0  0  0  0  0  0
  -19.7140   18.2258  -13.4261 C   0  0  0  0  0  0  0  0  0  0  0  0
  -17.9380   17.0517  -13.9017 N   0  0  0  0  0  0  0  0  0  0  0  0
  -20.3918   20.4958  -13.3995 O   0  0  0  0  0  0  0  0  0  0  0  0
  -25.9206   18.3591  -10.9917 C   0  0  0  0  0  0  0  0  0  0  0  0
 14  1  1  0
  1 15  2  0
  3  2  1  0
  2 15  1  0
 14  3  2  0
 10  4  2  0
  4 17  1  0
  8  5  1  0
 17  5  2  0
  7  6  1  0
  8  7  1  0
  9  8  2  0
 10  9  1  0
 11 10  1  0
 12 11  1  0
 13 12  1  0
 13 14  1  0
 13 16  2  0
M  END
$$$$
