
     RDKit          3D

 17 18  0  0  0  0  0  0  0  0999 V2000
  -13.3789   10.8556  -21.9590 C   0  0  0  0  0  0  0  0  0  0  0  0
  -11.9778   12.5108  -22.3632 N   0  0  0  0  0  0  0  0  0  0  0  0
  -12.1347   11.7861  -23.4992 C   0  0  0  0  0  0  0  0  0  0  0  0
  -12.4410   10.0034  -28.3447 C   0  0  0  0  0  0  0  0  0  0  0  0
  -11.2255    9.1813  -30.2417 C   0  0  0  0  0  0  0  0  0  0  0  0
  -10.3465    5.6408  -29.7398 C   0  0  0  0  0  0  0  0  0  0  0  0
  -10.5054    6.9286  -30.2709 O   0  0  0  0  0  0  0  0  0  0  0  0
  -11.1588    7.9662  -29.6203 C   0  0  0  0  0  0  0  0  0  0  0  0
  -11.7214    7.7595  -28.3785 C   0  0  0  0  0  0  0  0  0  0  0  0
  -12.3849    8.7847  -27.7003 C   0  0  0  0  0  0  0  0  0  0  0  0
  -12.9872    8.5670  -26.3727 C   0  0  0  0  0  0  0  0  0  0  0  0
  -12.8626    9.7090  -25.5366 O   0  0  0  0  0  0  0  0  0  0  0  0
  -13.4128    9.7581  -24.2652 C   0  0  0  0  0  0  0  0  0  0  0  0
  -13.0075   10.7457  -23.2680 C   0  0  0  0  0  0  0  0  0  0  0  0
  -12.7327   11.9326  -21.4585 N   0  0  0  0  0  0  0  0  0  0  0  0
  -14.2938    8.8972  -24.0039 O   0  0  0  0  0  0  0  0  0  0  0  0
  -11.8790   10.2118  -29.5866 C   0  0  0  0  0  0  0  0  0  0  0  0
 14  1  1  0
  1 15  2  0
  3  2  1  0
  2 15  1  0
 14  3  2  0
 10  4  2  0
  4 17  1  0
  8  5  1  0
 17  5  2  0
  7  6  1  0
  8  7  1  0
  9  8  2  0
 10  9  1  0
 11 10  1  0
 12 11  1  0
 13 12  1  0
 13 14  1  0
 13 16  2  0
M  END
$$$$
