
     RDKit          3D

 17 18  0  0  0  0  0  0  0  0999 V2000
  -18.1389   16.4305  -13.9426 C   0  0  0  0  0  0  0  0  0  0  0  0
  -16.8593   18.1807  -13.5359 N   0  0  0  0  0  0  0  0  0  0  0  0
  -18.1504   18.5199  -13.2942 C   0  0  0  0  0  0  0  0  0  0  0  0
  -23.9384   20.4078  -11.9599 C   0  0  0  0  0  0  0  0  0  0  0  0
  -23.8704   21.3558   -9.7579 C   0  0  0  0  0  0  0  0  0  0  0  0
  -22.6399   21.4513   -7.2076 C   0  0  0  0  0  0  0  0  0  0  0  0
  -22.4158   20.4283   -8.1399 O   0  0  0  0  0  0  0  0  0  0  0  0
  -22.9294   20.4210   -9.4294 C   0  0  0  0  0  0  0  0  0  0  0  0
  -22.4906   19.4872  -10.3441 C   0  0  0  0  0  0  0  0  0  0  0  0
  -22.9894   19.4558  -11.6485 C   0  0  0  0  0  0  0  0  0  0  0  0
  -22.5224   18.4590  -12.6287 C   0  0  0  0  0  0  0  0  0  0  0  0
  -21.1080   18.4653  -12.7634 O   0  0  0  0  0  0  0  0  0  0  0  0
  -20.4201   17.4373  -13.3894 C   0  0  0  0  0  0  0  0  0  0  0  0
  -18.9675   17.4389  -13.5426 C   0  0  0  0  0  0  0  0  0  0  0  0
  -16.8813   16.9265  -13.9221 N   0  0  0  0  0  0  0  0  0  0  0  0
  -21.1171   16.4846  -13.8280 O   0  0  0  0  0  0  0  0  0  0  0  0
  -24.3783   21.3424  -11.0463 C   0  0  0  0  0  0  0  0  0  0  0  0
 14  1  1  0
  1 15  2  0
  3  2  1  0
  2 15  1  0
 14  3  2  0
 10  4  2  0
  4 17  1  0
  8  5  1  0
 17  5  2  0
  7  6  1  0
  8  7  1  0
  9  8  2  0
 10  9  1  0
 11 10  1  0
 12 11  1  0
 13 12  1  0
 13 14  1  0
 13 16  2  0
M  END
$$$$
