
     RDKit          3D

 17 18  0  0  0  0  0  0  0  0999 V2000
  -13.8390   11.1778  -22.3367 C   0  0  0  0  0  0  0  0  0  0  0  0
  -11.7584   11.8888  -22.1591 N   0  0  0  0  0  0  0  0  0  0  0  0
  -11.9726   11.4840  -23.4362 C   0  0  0  0  0  0  0  0  0  0  0  0
  -11.9791   10.4673  -28.9235 C   0  0  0  0  0  0  0  0  0  0  0  0
  -10.8234    8.6912  -30.0468 C   0  0  0  0  0  0  0  0  0  0  0  0
  -10.1838    5.8993  -30.0501 C   0  0  0  0  0  0  0  0  0  0  0  0
  -11.3673    6.4470  -29.5353 O   0  0  0  0  0  0  0  0  0  0  0  0
  -11.5742    7.8039  -29.3284 C   0  0  0  0  0  0  0  0  0  0  0  0
  -12.5175    8.2294  -28.4172 C   0  0  0  0  0  0  0  0  0  0  0  0
  -12.7474    9.5881  -28.1883 C   0  0  0  0  0  0  0  0  0  0  0  0
  -13.7550   10.0462  -27.2149 C   0  0  0  0  0  0  0  0  0  0  0  0
  -13.1614   10.5021  -26.0072 O   0  0  0  0  0  0  0  0  0  0  0  0
  -13.8524   10.5231  -24.8056 C   0  0  0  0  0  0  0  0  0  0  0  0
  -13.2683   11.0354  -23.5686 C   0  0  0  0  0  0  0  0  0  0  0  0
  -12.8903   11.6947  -21.5239 N   0  0  0  0  0  0  0  0  0  0  0  0
  -15.0280   10.0723  -24.8291 O   0  0  0  0  0  0  0  0  0  0  0  0
  -11.0353   10.0434  -29.8352 C   0  0  0  0  0  0  0  0  0  0  0  0
 14  1  1  0
  1 15  2  0
  3  2  1  0
  2 15  1  0
 14  3  2  0
 10  4  2  0
  4 17  1  0
  8  5  1  0
 17  5  2  0
  7  6  1  0
  8  7  1  0
  9  8  2  0
 10  9  1  0
 11 10  1  0
 12 11  1  0
 13 12  1  0
 13 14  1  0
 13 16  2  0
M  END
$$$$
