
     RDKit          3D

 17 18  0  0  0  0  0  0  0  0999 V2000
  -14.1877   11.7172  -22.7954 C   0  0  0  0  0  0  0  0  0  0  0  0
  -12.2275   11.1281  -21.9727 N   0  0  0  0  0  0  0  0  0  0  0  0
  -12.2691   10.7870  -23.2852 C   0  0  0  0  0  0  0  0  0  0  0  0
  -11.8645   10.0286  -29.3839 C   0  0  0  0  0  0  0  0  0  0  0  0
  -10.3712    8.1938  -29.7786 C   0  0  0  0  0  0  0  0  0  0  0  0
   -9.3757    5.6680  -28.9957 C   0  0  0  0  0  0  0  0  0  0  0  0
  -10.4024    6.3368  -28.3142 O   0  0  0  0  0  0  0  0  0  0  0  0
  -10.8962    7.5829  -28.6748 C   0  0  0  0  0  0  0  0  0  0  0  0
  -11.8918    8.1759  -27.9275 C   0  0  0  0  0  0  0  0  0  0  0  0
  -12.4080    9.4288  -28.2665 C   0  0  0  0  0  0  0  0  0  0  0  0
  -13.4722   10.0654  -27.4696 C   0  0  0  0  0  0  0  0  0  0  0  0
  -13.0382   10.3784  -26.1534 O   0  0  0  0  0  0  0  0  0  0  0  0
  -13.8862   10.9335  -25.2076 C   0  0  0  0  0  0  0  0  0  0  0  0
  -13.4870   11.1469  -23.8188 C   0  0  0  0  0  0  0  0  0  0  0  0
  -13.3871   11.6822  -21.7064 N   0  0  0  0  0  0  0  0  0  0  0  0
  -15.0373   11.2513  -25.6072 O   0  0  0  0  0  0  0  0  0  0  0  0
  -10.8688    9.4369  -30.1324 C   0  0  0  0  0  0  0  0  0  0  0  0
 14  1  1  0
  1 15  2  0
  3  2  1  0
  2 15  1  0
 14  3  2  0
 10  4  2  0
  4 17  1  0
  8  5  1  0
 17  5  2  0
  7  6  1  0
  8  7  1  0
  9  8  2  0
 10  9  1  0
 11 10  1  0
 12 11  1  0
 13 12  1  0
 13 14  1  0
 13 16  2  0
M  END
$$$$
