
     RDKit          3D

 17 18  0  0  0  0  0  0  0  0999 V2000
  -12.9335   11.7545  -22.8735 C   0  0  0  0  0  0  0  0  0  0  0  0
  -12.5130    9.7892  -21.9645 N   0  0  0  0  0  0  0  0  0  0  0  0
  -12.5915    9.6384  -23.3104 C   0  0  0  0  0  0  0  0  0  0  0  0
  -12.8451    8.2687  -29.1807 C   0  0  0  0  0  0  0  0  0  0  0  0
  -10.7544    7.6602  -30.1860 C   0  0  0  0  0  0  0  0  0  0  0  0
   -7.8661    7.9292  -29.8547 C   0  0  0  0  0  0  0  0  0  0  0  0
   -8.8240    8.9437  -29.7163 O   0  0  0  0  0  0  0  0  0  0  0  0
  -10.1813    8.7162  -29.5352 C   0  0  0  0  0  0  0  0  0  0  0  0
  -10.9188    9.5444  -28.7157 C   0  0  0  0  0  0  0  0  0  0  0  0
  -12.2859    9.3399  -28.5146 C   0  0  0  0  0  0  0  0  0  0  0  0
  -13.0770   10.2234  -27.6393 C   0  0  0  0  0  0  0  0  0  0  0  0
  -12.6929   10.1068  -26.2763 O   0  0  0  0  0  0  0  0  0  0  0  0
  -13.0053   11.0750  -25.3346 C   0  0  0  0  0  0  0  0  0  0  0  0
  -12.8540   10.8562  -23.8983 C   0  0  0  0  0  0  0  0  0  0  0  0
  -12.7213   11.0637  -21.7309 N   0  0  0  0  0  0  0  0  0  0  0  0
  -13.4331   12.1717  -25.7816 O   0  0  0  0  0  0  0  0  0  0  0  0
  -12.1090    7.4395  -30.0006 C   0  0  0  0  0  0  0  0  0  0  0  0
 14  1  1  0
  1 15  2  0
  3  2  1  0
  2 15  1  0
 14  3  2  0
 10  4  2  0
  4 17  1  0
  8  5  1  0
 17  5  2  0
  7  6  1  0
  8  7  1  0
  9  8  2  0
 10  9  1  0
 11 10  1  0
 12 11  1  0
 13 12  1  0
 13 14  1  0
 13 16  2  0
M  END
$$$$
