
     RDKit          3D

 17 18  0  0  0  0  0  0  0  0999 V2000
  -17.5369   18.5086  -13.5546 C   0  0  0  0  0  0  0  0  0  0  0  0
  -17.9781   16.3485  -13.4826 N   0  0  0  0  0  0  0  0  0  0  0  0
  -19.1430   17.0347  -13.3699 C   0  0  0  0  0  0  0  0  0  0  0  0
  -24.0932   18.5473  -12.7774 C   0  0  0  0  0  0  0  0  0  0  0  0
  -25.8231   18.6433  -11.1189 C   0  0  0  0  0  0  0  0  0  0  0  0
  -25.3764   21.5939   -8.9777 C   0  0  0  0  0  0  0  0  0  0  0  0
  -25.7559   20.3368   -9.4692 O   0  0  0  0  0  0  0  0  0  0  0  0
  -25.1943   19.7331  -10.5858 C   0  0  0  0  0  0  0  0  0  0  0  0
  -24.0308   20.2329  -11.1314 C   0  0  0  0  0  0  0  0  0  0  0  0
  -23.4430   19.6462  -12.2546 C   0  0  0  0  0  0  0  0  0  0  0  0
  -22.1992   20.1780  -12.8402 C   0  0  0  0  0  0  0  0  0  0  0  0
  -21.2445   19.1545  -13.0847 O   0  0  0  0  0  0  0  0  0  0  0  0
  -19.9068   19.4319  -13.3197 C   0  0  0  0  0  0  0  0  0  0  0  0
  -18.8893   18.3880  -13.4127 C   0  0  0  0  0  0  0  0  0  0  0  0
  -17.0344   17.2540  -13.5916 N   0  0  0  0  0  0  0  0  0  0  0  0
  -19.6029   20.6468  -13.4517 O   0  0  0  0  0  0  0  0  0  0  0  0
  -25.2570   18.0462  -12.2329 C   0  0  0  0  0  0  0  0  0  0  0  0
 14  1  1  0
  1 15  2  0
  3  2  1  0
  2 15  1  0
 14  3  2  0
 10  4  2  0
  4 17  1  0
  8  5  1  0
 17  5  2  0
  7  6  1  0
  8  7  1  0
  9  8  2  0
 10  9  1  0
 11 10  1  0
 12 11  1  0
 13 12  1  0
 13 14  1  0
 13 16  2  0
M  END
$$$$
