
     RDKit          3D

 34 37  0  0  0  0  0  0  0  0999 V2000
   65.6838   46.0078   13.4029 C   0  0  0  0  0  0  0  0  0  0  0  0
   66.3807   46.3976   12.3105 O   0  0  0  0  0  0  0  0  0  0  0  0
   65.5607   46.9504   11.2938 C   0  0  0  0  0  0  0  0  0  0  0  0
   66.4890   47.2864   10.1311 C   0  0  1  0  0  0  0  0  0  0  0  0
   67.6175   48.1574   10.1867 C   0  0  1  0  0  0  0  0  0  0  0  0
   67.8971   46.7072   10.2068 C   0  0  0  0  0  0  0  0  0  0  0  0
   65.6763   47.0089    8.5248 S   0  0  0  0  0  0  0  0  0  0  0  0
   66.2821   48.3279    7.4127 C   0  0  0  0  0  0  0  0  0  0  0  0
   65.9557   48.2729    6.2491 N   0  0  0  0  0  0  0  0  0  0  0  0
   67.0396   49.3304    8.0363 N   0  0  0  0  0  0  0  0  0  0  0  0
   67.9803   49.0976    9.0981 C   0  0  1  0  0  0  0  0  0  0  0  0
   67.9383   50.5155    9.8315 C   0  0  0  0  0  0  0  0  0  0  0  0
   69.3372   48.9456    8.5978 C   0  0  0  0  0  0  0  0  0  0  0  0
   69.6741   48.5342    7.2853 C   0  0  0  0  0  0  0  0  0  0  0  0
   70.4128   49.3270    9.4327 C   0  0  0  0  0  0  0  0  0  0  0  0
   70.2637   49.6661   10.7128 F   0  0  0  0  0  0  0  0  0  0  0  0
   71.6759   49.2939    8.9479 C   0  0  0  0  0  0  0  0  0  0  0  0
   72.7431   49.6647    9.8288 F   0  0  0  0  0  0  0  0  0  0  0  0
   71.9851   48.9175    7.7194 C   0  0  0  0  0  0  0  0  0  0  0  0
   70.9497   48.5139    6.8423 C   0  0  0  0  0  0  0  0  0  0  0  0
   71.3103   48.0808    5.5417 N   0  0  0  0  0  0  0  0  0  0  0  0
   72.3365   47.0924    5.2433 C   0  0  0  0  0  0  0  0  0  0  0  0
   73.2129   46.9095    6.0923 O   0  0  0  0  0  0  0  0  0  0  0  0
   72.2642   46.3875    3.9567 C   0  0  0  0  0  0  0  0  0  0  0  0
   73.1657   45.4838    3.5034 C   0  0  0  0  0  0  0  0  0  0  0  0
   73.0611   44.9261    2.2425 N   0  0  0  0  0  0  0  0  0  0  0  0
   71.2605   46.7099    3.1179 N   0  0  0  0  0  0  0  0  0  0  0  0
   71.1461   46.1714    1.8945 C   0  0  0  0  0  0  0  0  0  0  0  0
   72.0800   45.2477    1.4339 C   0  0  0  0  0  0  0  0  0  0  0  0
   71.8789   44.7773    0.1997 O   0  0  0  0  0  0  0  0  0  0  0  0
   72.5355   43.9868   -0.6813 C   0  0  0  0  0  0  0  0  0  0  0  0
   72.9384   42.6458   -0.2275 C   0  0  0  0  0  0  0  0  0  0  0  0
   73.2735   41.5376    0.1598 C   0  0  0  0  0  0  0  0  0  0  0  0
   65.6913   48.1050    5.3897 H   0  0  0  0  0  0  0  0  0  0  0  0
  1  2  1  0
  2  3  1  0
  4  3  1  1
  4  5  1  0
  4  6  1  0
  4  7  1  0
  5  6  1  6
  5 11  1  0
  7  8  1  0
  8  9  2  0
  8 10  1  0
 10 11  1  0
 11 12  1  1
 11 13  1  0
 13 14  2  0
 13 15  1  0
 14 20  1  0
 15 16  1  0
 15 17  2  0
 17 18  1  0
 17 19  1  0
 19 20  2  0
 20 21  1  0
 21 22  1  0
 22 23  2  0
 22 24  1  0
 24 25  2  0
 24 27  1  0
 25 26  1  0
 26 29  2  0
 27 28  2  0
 28 29  1  0
 29 30  1  0
 30 31  1  0
 31 32  1  0
 32 33  3  0
  9 34  1  0
M  END
$$$$
