
     RDKit          3D

 34 37  0  0  0  0  0  0  0  0999 V2000
   63.2691   47.5636   11.5008 C   0  0  0  0  0  0  0  0  0  0  0  0
   64.2481   47.7124   10.5786 O   0  0  0  0  0  0  0  0  0  0  0  0
   65.5515   47.5913   11.1245 C   0  0  0  0  0  0  0  0  0  0  0  0
   66.5215   47.7966    9.9655 C   0  0  1  0  0  0  0  0  0  0  0  0
   67.5834   48.7483    9.9221 C   0  0  1  0  0  0  0  0  0  0  0  0
   67.9587   47.3479   10.2047 C   0  0  0  0  0  0  0  0  0  0  0  0
   65.8249   47.1911    8.3952 S   0  0  0  0  0  0  0  0  0  0  0  0
   66.4043   48.3462    7.1016 C   0  0  0  0  0  0  0  0  0  0  0  0
   66.1511   48.0711    5.9511 N   0  0  0  0  0  0  0  0  0  0  0  0
   67.0546   49.4945    7.5775 N   0  0  0  0  0  0  0  0  0  0  0  0
   67.9450   49.5166    8.7058 C   0  0  1  0  0  0  0  0  0  0  0  0
   67.7645   51.0304    9.1812 C   0  0  0  0  0  0  0  0  0  0  0  0
   69.3361   49.3867    8.3023 C   0  0  0  0  0  0  0  0  0  0  0  0
   69.7719   48.9067    7.0434 C   0  0  0  0  0  0  0  0  0  0  0  0
   70.3411   49.8621    9.1761 C   0  0  0  0  0  0  0  0  0  0  0  0
   70.0973   50.2754   10.4193 F   0  0  0  0  0  0  0  0  0  0  0  0
   71.6334   49.8481    8.7745 C   0  0  0  0  0  0  0  0  0  0  0  0
   72.6274   50.3155    9.6942 F   0  0  0  0  0  0  0  0  0  0  0  0
   72.0348   49.4073    7.5951 C   0  0  0  0  0  0  0  0  0  0  0  0
   71.0734   48.9087    6.6832 C   0  0  0  0  0  0  0  0  0  0  0  0
   71.5328   48.4087    5.4390 N   0  0  0  0  0  0  0  0  0  0  0  0
   72.3453   47.2133    5.2660 C   0  0  0  0  0  0  0  0  0  0  0  0
   73.0957   46.8974    6.1930 O   0  0  0  0  0  0  0  0  0  0  0  0
   72.2232   46.4711    4.0044 C   0  0  0  0  0  0  0  0  0  0  0  0
   73.1836   45.6886    3.4563 C   0  0  0  0  0  0  0  0  0  0  0  0
   73.0121   45.0882    2.2226 N   0  0  0  0  0  0  0  0  0  0  0  0
   71.0935   46.6292    3.2877 N   0  0  0  0  0  0  0  0  0  0  0  0
   70.9140   46.0476    2.0922 C   0  0  0  0  0  0  0  0  0  0  0  0
   71.9082   45.2496    1.5333 C   0  0  0  0  0  0  0  0  0  0  0  0
   71.6327   44.7230    0.3367 O   0  0  0  0  0  0  0  0  0  0  0  0
   72.3253   44.1953   -0.6996 C   0  0  0  0  0  0  0  0  0  0  0  0
   72.7981   45.1169   -1.7453 C   0  0  0  0  0  0  0  0  0  0  0  0
   73.1988   45.8849   -2.6056 C   0  0  0  0  0  0  0  0  0  0  0  0
   65.9898   47.9861    5.0548 H   0  0  0  0  0  0  0  0  0  0  0  0
  1  2  1  0
  2  3  1  0
  4  3  1  1
  4  5  1  0
  4  6  1  0
  4  7  1  0
  5  6  1  6
  5 11  1  0
  7  8  1  0
  8  9  2  0
  8 10  1  0
 10 11  1  0
 11 12  1  1
 11 13  1  0
 13 14  2  0
 13 15  1  0
 14 20  1  0
 15 16  1  0
 15 17  2  0
 17 18  1  0
 17 19  1  0
 19 20  2  0
 20 21  1  0
 21 22  1  0
 22 23  2  0
 22 24  1  0
 24 25  2  0
 24 27  1  0
 25 26  1  0
 26 29  2  0
 27 28  2  0
 28 29  1  0
 29 30  1  0
 30 31  1  0
 31 32  1  0
 32 33  3  0
  9 34  1  0
M  END
$$$$
