
     RDKit          3D

 34 37  0  0  0  0  0  0  0  0999 V2000
   62.9047   47.2255   11.4071 C   0  0  0  0  0  0  0  0  0  0  0  0
   63.9352   47.3822   10.5442 O   0  0  0  0  0  0  0  0  0  0  0  0
   65.2051   47.2849   11.1684 C   0  0  0  0  0  0  0  0  0  0  0  0
   66.2373   47.5908   10.0880 C   0  0  1  0  0  0  0  0  0  0  0  0
   67.3200   48.5127   10.2028 C   0  0  1  0  0  0  0  0  0  0  0  0
   67.6505   47.0801   10.3454 C   0  0  0  0  0  0  0  0  0  0  0  0
   65.6095   47.1811    8.4281 S   0  0  0  0  0  0  0  0  0  0  0  0
   66.2789   48.4559    7.3011 C   0  0  0  0  0  0  0  0  0  0  0  0
   66.0792   48.3163    6.1161 N   0  0  0  0  0  0  0  0  0  0  0  0
   66.9281   49.5269    7.9331 N   0  0  0  0  0  0  0  0  0  0  0  0
   67.7597   49.4006    9.0987 C   0  0  1  0  0  0  0  0  0  0  0  0
   67.5872   50.8569    9.7306 C   0  0  0  0  0  0  0  0  0  0  0  0
   69.1666   49.2787    8.7514 C   0  0  0  0  0  0  0  0  0  0  0  0
   69.6551   48.8410    7.4964 C   0  0  0  0  0  0  0  0  0  0  0  0
   70.1341   49.7191    9.6839 C   0  0  0  0  0  0  0  0  0  0  0  0
   69.8379   50.0898   10.9291 F   0  0  0  0  0  0  0  0  0  0  0  0
   71.4426   49.7135    9.3382 C   0  0  0  0  0  0  0  0  0  0  0  0
   72.3972   50.1442   10.3157 F   0  0  0  0  0  0  0  0  0  0  0  0
   71.8934   49.3123    8.1625 C   0  0  0  0  0  0  0  0  0  0  0  0
   70.9710   48.8499    7.1931 C   0  0  0  0  0  0  0  0  0  0  0  0
   71.4824   48.3916    5.9531 N   0  0  0  0  0  0  0  0  0  0  0  0
   72.4369   47.3044    5.7920 C   0  0  0  0  0  0  0  0  0  0  0  0
   73.1888   47.0634    6.7401 O   0  0  0  0  0  0  0  0  0  0  0  0
   72.4456   46.5755    4.5169 C   0  0  0  0  0  0  0  0  0  0  0  0
   73.3417   45.6239    4.1612 C   0  0  0  0  0  0  0  0  0  0  0  0
   73.3226   45.0438    2.9062 N   0  0  0  0  0  0  0  0  0  0  0  0
   71.5345   46.9225    3.5871 N   0  0  0  0  0  0  0  0  0  0  0  0
   71.5033   46.3629    2.3683 C   0  0  0  0  0  0  0  0  0  0  0  0
   72.4313   45.3898    2.0085 C   0  0  0  0  0  0  0  0  0  0  0  0
   72.3178   44.9017    0.7701 O   0  0  0  0  0  0  0  0  0  0  0  0
   71.7622   45.2870   -0.4025 C   0  0  0  0  0  0  0  0  0  0  0  0
   70.2932   45.3397   -0.4779 C   0  0  0  0  0  0  0  0  0  0  0  0
   69.0745   45.3718   -0.5417 C   0  0  0  0  0  0  0  0  0  0  0  0
   65.8268   48.2891    5.2374 H   0  0  0  0  0  0  0  0  0  0  0  0
  1  2  1  0
  2  3  1  0
  4  3  1  1
  4  5  1  0
  4  6  1  0
  4  7  1  0
  5  6  1  6
  5 11  1  0
  7  8  1  0
  8  9  2  0
  8 10  1  0
 10 11  1  0
 11 12  1  1
 11 13  1  0
 13 14  2  0
 13 15  1  0
 14 20  1  0
 15 16  1  0
 15 17  2  0
 17 18  1  0
 17 19  1  0
 19 20  2  0
 20 21  1  0
 21 22  1  0
 22 23  2  0
 22 24  1  0
 24 25  2  0
 24 27  1  0
 25 26  1  0
 26 29  2  0
 27 28  2  0
 28 29  1  0
 29 30  1  0
 30 31  1  0
 31 32  1  0
 32 33  3  0
  9 34  1  0
M  END
$$$$
