
     RDKit          3D

 34 37  0  0  0  0  0  0  0  0999 V2000
   63.1567   47.1639   11.5704 C   0  0  0  0  0  0  0  0  0  0  0  0
   64.1617   47.2727   10.6710 O   0  0  0  0  0  0  0  0  0  0  0  0
   65.4468   47.2953   11.2707 C   0  0  0  0  0  0  0  0  0  0  0  0
   66.4410   47.5508   10.1425 C   0  0  1  0  0  0  0  0  0  0  0  0
   67.5329   48.4680   10.1817 C   0  0  1  0  0  0  0  0  0  0  0  0
   67.8593   47.0396   10.3684 C   0  0  0  0  0  0  0  0  0  0  0  0
   65.7504   47.0815    8.5237 S   0  0  0  0  0  0  0  0  0  0  0  0
   66.3863   48.3061    7.3240 C   0  0  0  0  0  0  0  0  0  0  0  0
   66.1427   48.1220    6.1534 N   0  0  0  0  0  0  0  0  0  0  0  0
   67.0650   49.3959    7.8896 N   0  0  0  0  0  0  0  0  0  0  0  0
   67.9377   49.3087    9.0284 C   0  0  1  0  0  0  0  0  0  0  0  0
   67.7976   50.7899    9.6085 C   0  0  0  0  0  0  0  0  0  0  0  0
   69.3302   49.1625    8.6355 C   0  0  0  0  0  0  0  0  0  0  0  0
   69.7697   48.6962    7.3727 C   0  0  0  0  0  0  0  0  0  0  0  0
   70.3346   49.6068    9.5261 C   0  0  0  0  0  0  0  0  0  0  0  0
   70.0860   50.0034   10.7739 F   0  0  0  0  0  0  0  0  0  0  0  0
   71.6302   49.5781    9.1361 C   0  0  0  0  0  0  0  0  0  0  0  0
   72.6231   50.0137   10.0724 F   0  0  0  0  0  0  0  0  0  0  0  0
   72.0353   49.1502    7.9532 C   0  0  0  0  0  0  0  0  0  0  0  0
   71.0745   48.6827    7.0245 C   0  0  0  0  0  0  0  0  0  0  0  0
   71.5372   48.1958    5.7762 N   0  0  0  0  0  0  0  0  0  0  0  0
   72.4274   47.0577    5.5999 C   0  0  0  0  0  0  0  0  0  0  0  0
   73.2560   46.8416    6.4882 O   0  0  0  0  0  0  0  0  0  0  0  0
   72.2851   46.2511    4.3806 C   0  0  0  0  0  0  0  0  0  0  0  0
   73.1945   45.3612    3.9159 C   0  0  0  0  0  0  0  0  0  0  0  0
   73.0139   44.7014    2.7142 N   0  0  0  0  0  0  0  0  0  0  0  0
   71.1963   46.4555    3.6142 N   0  0  0  0  0  0  0  0  0  0  0  0
   71.0079   45.8174    2.4492 C   0  0  0  0  0  0  0  0  0  0  0  0
   71.9501   44.9086    1.9758 C   0  0  0  0  0  0  0  0  0  0  0  0
   71.6708   44.3331    0.8029 O   0  0  0  0  0  0  0  0  0  0  0  0
   71.4635   44.7305   -0.4743 C   0  0  0  0  0  0  0  0  0  0  0  0
   72.3948   45.7189   -1.0419 C   0  0  0  0  0  0  0  0  0  0  0  0
   73.1661   46.5452   -1.5030 C   0  0  0  0  0  0  0  0  0  0  0  0
   65.8657   48.0717    5.2832 H   0  0  0  0  0  0  0  0  0  0  0  0
  1  2  1  0
  2  3  1  0
  4  3  1  1
  4  5  1  0
  4  6  1  0
  4  7  1  0
  5  6  1  6
  5 11  1  0
  7  8  1  0
  8  9  2  0
  8 10  1  0
 10 11  1  0
 11 12  1  1
 11 13  1  0
 13 14  2  0
 13 15  1  0
 14 20  1  0
 15 16  1  0
 15 17  2  0
 17 18  1  0
 17 19  1  0
 19 20  2  0
 20 21  1  0
 21 22  1  0
 22 23  2  0
 22 24  1  0
 24 25  2  0
 24 27  1  0
 25 26  1  0
 26 29  2  0
 27 28  2  0
 28 29  1  0
 29 30  1  0
 30 31  1  0
 31 32  1  0
 32 33  3  0
  9 34  1  0
M  END
$$$$
