
     RDKit          3D

 34 37  0  0  0  0  0  0  0  0999 V2000
   63.2232   47.4788   11.7470 C   0  0  0  0  0  0  0  0  0  0  0  0
   64.2021   47.6618   10.8309 O   0  0  0  0  0  0  0  0  0  0  0  0
   65.4836   47.2742   11.2989 C   0  0  0  0  0  0  0  0  0  0  0  0
   66.4482   47.4972   10.1387 C   0  0  1  0  0  0  0  0  0  0  0  0
   67.5185   48.4400   10.1104 C   0  0  1  0  0  0  0  0  0  0  0  0
   67.8827   47.0302   10.3586 C   0  0  0  0  0  0  0  0  0  0  0  0
   65.7365   46.9341    8.5595 S   0  0  0  0  0  0  0  0  0  0  0  0
   66.3185   48.1132    7.2890 C   0  0  0  0  0  0  0  0  0  0  0  0
   66.0556   47.8669    6.1341 N   0  0  0  0  0  0  0  0  0  0  0  0
   66.9822   49.2444    7.7868 N   0  0  0  0  0  0  0  0  0  0  0  0
   67.8797   49.2327    8.9096 C   0  0  1  0  0  0  0  0  0  0  0  0
   67.7160   50.7367    9.4206 C   0  0  0  0  0  0  0  0  0  0  0  0
   69.2670   49.0995    8.4945 C   0  0  0  0  0  0  0  0  0  0  0  0
   69.6910   48.6201    7.2313 C   0  0  0  0  0  0  0  0  0  0  0  0
   70.2805   49.5709    9.3605 C   0  0  0  0  0  0  0  0  0  0  0  0
   70.0482   49.9830   10.6064 F   0  0  0  0  0  0  0  0  0  0  0  0
   71.5694   49.5539    8.9482 C   0  0  0  0  0  0  0  0  0  0  0  0
   72.5723   50.0172    9.8603 F   0  0  0  0  0  0  0  0  0  0  0  0
   71.9598   49.1136    7.7649 C   0  0  0  0  0  0  0  0  0  0  0  0
   70.9895   48.6190    6.8603 C   0  0  0  0  0  0  0  0  0  0  0  0
   71.4371   48.1196    5.6116 N   0  0  0  0  0  0  0  0  0  0  0  0
   72.2191   46.9057    5.4275 C   0  0  0  0  0  0  0  0  0  0  0  0
   72.9962   46.5880    6.3317 O   0  0  0  0  0  0  0  0  0  0  0  0
   72.0368   46.1480    4.1825 C   0  0  0  0  0  0  0  0  0  0  0  0
   72.8536   45.1651    3.7334 C   0  0  0  0  0  0  0  0  0  0  0  0
   72.6500   44.5574    2.5081 N   0  0  0  0  0  0  0  0  0  0  0  0
   71.0158   46.4981    3.3763 N   0  0  0  0  0  0  0  0  0  0  0  0
   70.8055   45.9120    2.1880 C   0  0  0  0  0  0  0  0  0  0  0  0
   71.6529   44.9067    1.7311 C   0  0  0  0  0  0  0  0  0  0  0  0
   71.3602   44.3938    0.5327 O   0  0  0  0  0  0  0  0  0  0  0  0
   72.0394   43.9125   -0.5347 C   0  0  0  0  0  0  0  0  0  0  0  0
   73.2396   44.6461   -0.9681 C   0  0  0  0  0  0  0  0  0  0  0  0
   74.2346   45.2491   -1.3378 C   0  0  0  0  0  0  0  0  0  0  0  0
   65.8200   47.8042    5.2526 H   0  0  0  0  0  0  0  0  0  0  0  0
  1  2  1  0
  2  3  1  0
  4  3  1  1
  4  5  1  0
  4  6  1  0
  4  7  1  0
  5  6  1  6
  5 11  1  0
  7  8  1  0
  8  9  2  0
  8 10  1  0
 10 11  1  0
 11 12  1  1
 11 13  1  0
 13 14  2  0
 13 15  1  0
 14 20  1  0
 15 16  1  0
 15 17  2  0
 17 18  1  0
 17 19  1  0
 19 20  2  0
 20 21  1  0
 21 22  1  0
 22 23  2  0
 22 24  1  0
 24 25  2  0
 24 27  1  0
 25 26  1  0
 26 29  2  0
 27 28  2  0
 28 29  1  0
 29 30  1  0
 30 31  1  0
 31 32  1  0
 32 33  3  0
  9 34  1  0
M  END
$$$$
