
     RDKit          3D

 34 37  0  0  0  0  0  0  0  0999 V2000
   63.2303   47.7061   12.0051 C   0  0  0  0  0  0  0  0  0  0  0  0
   64.1245   47.7591   10.9909 O   0  0  0  0  0  0  0  0  0  0  0  0
   65.4705   47.6696   11.4288 C   0  0  0  0  0  0  0  0  0  0  0  0
   66.3349   47.7557   10.1750 C   0  0  1  0  0  0  0  0  0  0  0  0
   67.5079   48.5529   10.0210 C   0  0  1  0  0  0  0  0  0  0  0  0
   67.7131   47.1103   10.2636 C   0  0  0  0  0  0  0  0  0  0  0  0
   65.4031   47.2737    8.6860 S   0  0  0  0  0  0  0  0  0  0  0  0
   66.0001   48.3561    7.3387 C   0  0  0  0  0  0  0  0  0  0  0  0
   65.5940   48.1347    6.2208 N   0  0  0  0  0  0  0  0  0  0  0  0
   66.8485   49.3973    7.7438 N   0  0  0  0  0  0  0  0  0  0  0  0
   67.8449   49.2810    8.7733 C   0  0  1  0  0  0  0  0  0  0  0  0
   67.9254   50.7985    9.2643 C   0  0  0  0  0  0  0  0  0  0  0  0
   69.1556   48.9667    8.2274 C   0  0  0  0  0  0  0  0  0  0  0  0
   69.3814   48.2929    7.0026 C   0  0  0  0  0  0  0  0  0  0  0  0
   70.3021   49.4474    8.9012 C   0  0  0  0  0  0  0  0  0  0  0  0
   70.2585   50.0347   10.0966 F   0  0  0  0  0  0  0  0  0  0  0  0
   71.5248   49.2574    8.3531 C   0  0  0  0  0  0  0  0  0  0  0  0
   72.6659   49.7370    9.0745 F   0  0  0  0  0  0  0  0  0  0  0  0
   71.7303   48.6355    7.2053 C   0  0  0  0  0  0  0  0  0  0  0  0
   70.6200   48.1229    6.4920 C   0  0  0  0  0  0  0  0  0  0  0  0
   70.8695   47.4289    5.2815 N   0  0  0  0  0  0  0  0  0  0  0  0
   72.1745   46.9591    4.8399 C   0  0  0  0  0  0  0  0  0  0  0  0
   73.1429   47.2100    5.5621 O   0  0  0  0  0  0  0  0  0  0  0  0
   72.2521   46.2276    3.5685 C   0  0  0  0  0  0  0  0  0  0  0  0
   73.2951   45.4646    3.1627 C   0  0  0  0  0  0  0  0  0  0  0  0
   73.3175   44.8740    1.9126 N   0  0  0  0  0  0  0  0  0  0  0  0
   71.2385   46.3766    2.6937 N   0  0  0  0  0  0  0  0  0  0  0  0
   71.2470   45.8043    1.4804 C   0  0  0  0  0  0  0  0  0  0  0  0
   72.3253   45.0263    1.0687 C   0  0  0  0  0  0  0  0  0  0  0  0
   72.2382   44.5076   -0.1595 O   0  0  0  0  0  0  0  0  0  0  0  0
   73.0861   44.0124   -1.0911 C   0  0  0  0  0  0  0  0  0  0  0  0
   73.8749   44.9748   -1.8773 C   0  0  0  0  0  0  0  0  0  0  0  0
   74.5234   45.7698   -2.5389 C   0  0  0  0  0  0  0  0  0  0  0  0
   65.1696   47.9608    5.4295 H   0  0  0  0  0  0  0  0  0  0  0  0
  1  2  1  0
  2  3  1  0
  4  3  1  1
  4  5  1  0
  4  6  1  0
  4  7  1  0
  5  6  1  6
  5 11  1  0
  7  8  1  0
  8  9  2  0
  8 10  1  0
 10 11  1  0
 11 12  1  1
 11 13  1  0
 13 14  2  0
 13 15  1  0
 14 20  1  0
 15 16  1  0
 15 17  2  0
 17 18  1  0
 17 19  1  0
 19 20  2  0
 20 21  1  0
 21 22  1  0
 22 23  2  0
 22 24  1  0
 24 25  2  0
 24 27  1  0
 25 26  1  0
 26 29  2  0
 27 28  2  0
 28 29  1  0
 29 30  1  0
 30 31  1  0
 31 32  1  0
 32 33  3  0
  9 34  1  0
M  END
$$$$
