
     RDKit          3D

 34 37  0  0  0  0  0  0  0  0999 V2000
   63.4489   46.0659   11.5393 C   0  0  0  0  0  0  0  0  0  0  0  0
   64.5218   46.1305   10.7173 O   0  0  0  0  0  0  0  0  0  0  0  0
   65.5890   46.8963   11.2523 C   0  0  0  0  0  0  0  0  0  0  0  0
   66.5407   47.1722   10.0928 C   0  0  1  0  0  0  0  0  0  0  0  0
   67.6527   48.0656   10.1179 C   0  0  1  0  0  0  0  0  0  0  0  0
   67.9560   46.6252   10.2406 C   0  0  0  0  0  0  0  0  0  0  0  0
   65.7738   46.7750    8.4891 S   0  0  0  0  0  0  0  0  0  0  0  0
   66.3855   48.0290    7.3072 C   0  0  0  0  0  0  0  0  0  0  0  0
   66.0897   47.8918    6.1422 N   0  0  0  0  0  0  0  0  0  0  0  0
   67.1101   49.0841    7.8814 N   0  0  0  0  0  0  0  0  0  0  0  0
   68.0272   48.9388    8.9787 C   0  0  1  0  0  0  0  0  0  0  0  0
   67.9429   50.4008    9.6156 C   0  0  0  0  0  0  0  0  0  0  0  0
   69.3988   48.7792    8.5226 C   0  0  0  0  0  0  0  0  0  0  0  0
   69.7758   48.3684    7.2209 C   0  0  0  0  0  0  0  0  0  0  0  0
   70.4489   49.1519    9.3930 C   0  0  0  0  0  0  0  0  0  0  0  0
   70.2603   49.4893   10.6684 F   0  0  0  0  0  0  0  0  0  0  0  0
   71.7269   49.1118    8.9497 C   0  0  0  0  0  0  0  0  0  0  0  0
   72.7672   49.4739    9.8658 F   0  0  0  0  0  0  0  0  0  0  0  0
   72.0737   48.7361    7.7311 C   0  0  0  0  0  0  0  0  0  0  0  0
   71.0650   48.3410    6.8196 C   0  0  0  0  0  0  0  0  0  0  0  0
   71.4651   47.9084    5.5305 N   0  0  0  0  0  0  0  0  0  0  0  0
   72.3571   46.7896    5.2627 C   0  0  0  0  0  0  0  0  0  0  0  0
   73.1831   46.5008    6.1325 O   0  0  0  0  0  0  0  0  0  0  0  0
   72.2195   46.0875    3.9799 C   0  0  0  0  0  0  0  0  0  0  0  0
   72.9929   45.0576    3.5602 C   0  0  0  0  0  0  0  0  0  0  0  0
   72.8439   44.5060    2.3011 N   0  0  0  0  0  0  0  0  0  0  0  0
   71.2970   46.5416    3.1095 N   0  0  0  0  0  0  0  0  0  0  0  0
   71.1400   46.0110    1.8874 C   0  0  0  0  0  0  0  0  0  0  0  0
   71.9428   44.9565    1.4616 C   0  0  0  0  0  0  0  0  0  0  0  0
   71.7103   44.5056    0.2256 O   0  0  0  0  0  0  0  0  0  0  0  0
   72.3260   43.6981   -0.6694 C   0  0  0  0  0  0  0  0  0  0  0  0
   72.9390   42.4593   -0.1633 C   0  0  0  0  0  0  0  0  0  0  0  0
   73.4567   41.4337    0.2496 C   0  0  0  0  0  0  0  0  0  0  0  0
   65.8797   47.6612    5.2824 H   0  0  0  0  0  0  0  0  0  0  0  0
  1  2  1  0
  2  3  1  0
  4  3  1  1
  4  5  1  0
  4  6  1  0
  4  7  1  0
  5  6  1  6
  5 11  1  0
  7  8  1  0
  8  9  2  0
  8 10  1  0
 10 11  1  0
 11 12  1  1
 11 13  1  0
 13 14  2  0
 13 15  1  0
 14 20  1  0
 15 16  1  0
 15 17  2  0
 17 18  1  0
 17 19  1  0
 19 20  2  0
 20 21  1  0
 21 22  1  0
 22 23  2  0
 22 24  1  0
 24 25  2  0
 24 27  1  0
 25 26  1  0
 26 29  2  0
 27 28  2  0
 28 29  1  0
 29 30  1  0
 30 31  1  0
 31 32  1  0
 32 33  3  0
  9 34  1  0
M  END
$$$$
