
     RDKit          3D

 34 37  0  0  0  0  0  0  0  0999 V2000
   62.7541   47.9388   11.7625 C   0  0  0  0  0  0  0  0  0  0  0  0
   63.8131   47.9772   10.9210 O   0  0  0  0  0  0  0  0  0  0  0  0
   65.0125   47.5041   11.5119 C   0  0  0  0  0  0  0  0  0  0  0  0
   66.0852   47.5913   10.4312 C   0  0  1  0  0  0  0  0  0  0  0  0
   67.2804   48.3672   10.4999 C   0  0  1  0  0  0  0  0  0  0  0  0
   67.4153   46.9175   10.7490 C   0  0  0  0  0  0  0  0  0  0  0  0
   65.4219   47.1496    8.7934 S   0  0  0  0  0  0  0  0  0  0  0  0
   66.2649   48.2394    7.5913 C   0  0  0  0  0  0  0  0  0  0  0  0
   66.0581   48.0423    6.4158 N   0  0  0  0  0  0  0  0  0  0  0  0
   67.0463   49.2576    8.1576 N   0  0  0  0  0  0  0  0  0  0  0  0
   67.8439   49.1066    9.3439 C   0  0  1  0  0  0  0  0  0  0  0  0
   67.8625   50.6149    9.8683 C   0  0  0  0  0  0  0  0  0  0  0  0
   69.2247   48.7744    9.0312 C   0  0  0  0  0  0  0  0  0  0  0  0
   69.6328   47.9236    7.9753 C   0  0  0  0  0  0  0  0  0  0  0  0
   70.2556   49.4146    9.7569 C   0  0  0  0  0  0  0  0  0  0  0  0
   70.0344   50.1845   10.8219 F   0  0  0  0  0  0  0  0  0  0  0  0
   71.5460   49.2001    9.4100 C   0  0  0  0  0  0  0  0  0  0  0  0
   72.5652   49.8467   10.1818 F   0  0  0  0  0  0  0  0  0  0  0  0
   71.9222   48.4119    8.4182 C   0  0  0  0  0  0  0  0  0  0  0  0
   70.9333   47.7357    7.6637 C   0  0  0  0  0  0  0  0  0  0  0  0
   71.3635   46.8684    6.6283 N   0  0  0  0  0  0  0  0  0  0  0  0
   72.4721   47.1321    5.7225 C   0  0  0  0  0  0  0  0  0  0  0  0
   73.3852   47.8512    6.1364 O   0  0  0  0  0  0  0  0  0  0  0  0
   72.4268   46.5333    4.3820 C   0  0  0  0  0  0  0  0  0  0  0  0
   73.2193   45.5260    3.9436 C   0  0  0  0  0  0  0  0  0  0  0  0
   73.1626   45.0757    2.6375 N   0  0  0  0  0  0  0  0  0  0  0  0
   71.5797   47.0687    3.4817 N   0  0  0  0  0  0  0  0  0  0  0  0
   71.5123   46.6366    2.2134 C   0  0  0  0  0  0  0  0  0  0  0  0
   72.3343   45.6047    1.7692 C   0  0  0  0  0  0  0  0  0  0  0  0
   72.1935   45.2543    0.4876 O   0  0  0  0  0  0  0  0  0  0  0  0
   71.9100   44.1290   -0.2092 C   0  0  0  0  0  0  0  0  0  0  0  0
   70.7606   43.3230    0.2331 C   0  0  0  0  0  0  0  0  0  0  0  0
   69.8041   42.6630    0.6071 C   0  0  0  0  0  0  0  0  0  0  0  0
   65.8736   48.0193    5.5202 H   0  0  0  0  0  0  0  0  0  0  0  0
  1  2  1  0
  2  3  1  0
  4  3  1  1
  4  5  1  0
  4  6  1  0
  4  7  1  0
  5  6  1  6
  5 11  1  0
  7  8  1  0
  8  9  2  0
  8 10  1  0
 10 11  1  0
 11 12  1  1
 11 13  1  0
 13 14  2  0
 13 15  1  0
 14 20  1  0
 15 16  1  0
 15 17  2  0
 17 18  1  0
 17 19  1  0
 19 20  2  0
 20 21  1  0
 21 22  1  0
 22 23  2  0
 22 24  1  0
 24 25  2  0
 24 27  1  0
 25 26  1  0
 26 29  2  0
 27 28  2  0
 28 29  1  0
 29 30  1  0
 30 31  1  0
 31 32  1  0
 32 33  3  0
  9 34  1  0
M  END
$$$$
