
     RDKit          3D

 34 37  0  0  0  0  0  0  0  0999 V2000
   63.4189   47.0333   11.6534 C   0  0  0  0  0  0  0  0  0  0  0  0
   64.3912   47.1891   10.7254 O   0  0  0  0  0  0  0  0  0  0  0  0
   65.6924   47.2532   11.2863 C   0  0  0  0  0  0  0  0  0  0  0  0
   66.6477   47.5011   10.1234 C   0  0  1  0  0  0  0  0  0  0  0  0
   67.7521   48.4042   10.1263 C   0  0  1  0  0  0  0  0  0  0  0  0
   68.0667   46.9709   10.2950 C   0  0  0  0  0  0  0  0  0  0  0  0
   65.8923   47.0480    8.5291 S   0  0  0  0  0  0  0  0  0  0  0  0
   66.4997   48.2699    7.3119 C   0  0  0  0  0  0  0  0  0  0  0  0
   66.2110   48.0942    6.1503 N   0  0  0  0  0  0  0  0  0  0  0  0
   67.2126   49.3483    7.8566 N   0  0  0  0  0  0  0  0  0  0  0  0
   68.1252   49.2449    8.9624 C   0  0  1  0  0  0  0  0  0  0  0  0
   68.0256   50.7251    9.5532 C   0  0  0  0  0  0  0  0  0  0  0  0
   69.5004   49.0827    8.5181 C   0  0  0  0  0  0  0  0  0  0  0  0
   69.8879   48.6758    7.2183 C   0  0  0  0  0  0  0  0  0  0  0  0
   70.5437   49.4490    9.3994 C   0  0  0  0  0  0  0  0  0  0  0  0
   70.3445   49.7820   10.6743 F   0  0  0  0  0  0  0  0  0  0  0  0
   71.8256   49.4066    8.9675 C   0  0  0  0  0  0  0  0  0  0  0  0
   72.8585   49.7620    9.8944 F   0  0  0  0  0  0  0  0  0  0  0  0
   72.1822   49.0344    7.7506 C   0  0  0  0  0  0  0  0  0  0  0  0
   71.1806   48.6459    6.8286 C   0  0  0  0  0  0  0  0  0  0  0  0
   71.5911   48.2170    5.5415 N   0  0  0  0  0  0  0  0  0  0  0  0
   72.4976   47.1088    5.2783 C   0  0  0  0  0  0  0  0  0  0  0  0
   73.3171   46.8246    6.1558 O   0  0  0  0  0  0  0  0  0  0  0  0
   72.3813   46.4112    3.9910 C   0  0  0  0  0  0  0  0  0  0  0  0
   73.1613   45.3826    3.5806 C   0  0  0  0  0  0  0  0  0  0  0  0
   73.0333   44.8355    2.3172 N   0  0  0  0  0  0  0  0  0  0  0  0
   71.4736   46.8688    3.1069 N   0  0  0  0  0  0  0  0  0  0  0  0
   71.3369   46.3425    1.8804 C   0  0  0  0  0  0  0  0  0  0  0  0
   72.1464   45.2893    1.4644 C   0  0  0  0  0  0  0  0  0  0  0  0
   71.9345   44.8428    0.2231 O   0  0  0  0  0  0  0  0  0  0  0  0
   71.5895   43.6744   -0.3669 C   0  0  0  0  0  0  0  0  0  0  0  0
   72.2619   42.4501    0.0972 C   0  0  0  0  0  0  0  0  0  0  0  0
   72.8108   41.4328    0.4897 C   0  0  0  0  0  0  0  0  0  0  0  0
   66.0143   47.8360    5.2952 H   0  0  0  0  0  0  0  0  0  0  0  0
  1  2  1  0
  2  3  1  0
  4  3  1  1
  4  5  1  0
  4  6  1  0
  4  7  1  0
  5  6  1  6
  5 11  1  0
  7  8  1  0
  8  9  2  0
  8 10  1  0
 10 11  1  0
 11 12  1  1
 11 13  1  0
 13 14  2  0
 13 15  1  0
 14 20  1  0
 15 16  1  0
 15 17  2  0
 17 18  1  0
 17 19  1  0
 19 20  2  0
 20 21  1  0
 21 22  1  0
 22 23  2  0
 22 24  1  0
 24 25  2  0
 24 27  1  0
 25 26  1  0
 26 29  2  0
 27 28  2  0
 28 29  1  0
 29 30  1  0
 30 31  1  0
 31 32  1  0
 32 33  3  0
  9 34  1  0
M  END
$$$$
