
     RDKit          3D

 34 37  0  0  0  0  0  0  0  0999 V2000
   63.0475   47.9210   11.6765 C   0  0  0  0  0  0  0  0  0  0  0  0
   64.0594   47.9032   10.7782 O   0  0  0  0  0  0  0  0  0  0  0  0
   65.3383   47.7905   11.3810 C   0  0  0  0  0  0  0  0  0  0  0  0
   66.3517   47.8115   10.2412 C   0  0  1  0  0  0  0  0  0  0  0  0
   67.5382   48.6019   10.1916 C   0  0  1  0  0  0  0  0  0  0  0  0
   67.7055   47.1748   10.5343 C   0  0  0  0  0  0  0  0  0  0  0  0
   65.6094   47.2486    8.6760 S   0  0  0  0  0  0  0  0  0  0  0  0
   66.3736   48.2588    7.3573 C   0  0  0  0  0  0  0  0  0  0  0  0
   66.1082   47.9771    6.2112 N   0  0  0  0  0  0  0  0  0  0  0  0
   67.1698   49.3221    7.8085 N   0  0  0  0  0  0  0  0  0  0  0  0
   68.0305   49.2631    8.9583 C   0  0  1  0  0  0  0  0  0  0  0  0
   68.0562   50.8048    9.3739 C   0  0  0  0  0  0  0  0  0  0  0  0
   69.3973   48.9230    8.5966 C   0  0  0  0  0  0  0  0  0  0  0  0
   69.7609   47.9877    7.5975 C   0  0  0  0  0  0  0  0  0  0  0  0
   70.4555   49.6387    9.2028 C   0  0  0  0  0  0  0  0  0  0  0  0
   70.2805   50.4967   10.2073 F   0  0  0  0  0  0  0  0  0  0  0  0
   71.7281   49.4116    8.8021 C   0  0  0  0  0  0  0  0  0  0  0  0
   72.7771   50.1374    9.4541 F   0  0  0  0  0  0  0  0  0  0  0  0
   72.0622   48.5439    7.8629 C   0  0  0  0  0  0  0  0  0  0  0  0
   71.0450   47.7904    7.2289 C   0  0  0  0  0  0  0  0  0  0  0  0
   71.4320   46.8409    6.2502 N   0  0  0  0  0  0  0  0  0  0  0  0
   72.3330   47.1053    5.1379 C   0  0  0  0  0  0  0  0  0  0  0  0
   73.2144   47.9515    5.3096 O   0  0  0  0  0  0  0  0  0  0  0  0
   72.1300   46.3565    3.8908 C   0  0  0  0  0  0  0  0  0  0  0  0
   73.0709   45.6177    3.2552 C   0  0  0  0  0  0  0  0  0  0  0  0
   72.8149   45.0083    2.0407 N   0  0  0  0  0  0  0  0  0  0  0  0
   70.9336   46.4620    3.2807 N   0  0  0  0  0  0  0  0  0  0  0  0
   70.6723   45.8711    2.1050 C   0  0  0  0  0  0  0  0  0  0  0  0
   71.6464   45.1183    1.4555 C   0  0  0  0  0  0  0  0  0  0  0  0
   71.2870   44.5780    0.2876 O   0  0  0  0  0  0  0  0  0  0  0  0
   71.8641   43.8255   -0.6783 C   0  0  0  0  0  0  0  0  0  0  0  0
   72.7407   44.5081   -1.6437 C   0  0  0  0  0  0  0  0  0  0  0  0
   73.4584   45.0792   -2.4494 C   0  0  0  0  0  0  0  0  0  0  0  0
   65.7838   47.7783    5.3794 H   0  0  0  0  0  0  0  0  0  0  0  0
  1  2  1  0
  2  3  1  0
  4  3  1  1
  4  5  1  0
  4  6  1  0
  4  7  1  0
  5  6  1  6
  5 11  1  0
  7  8  1  0
  8  9  2  0
  8 10  1  0
 10 11  1  0
 11 12  1  1
 11 13  1  0
 13 14  2  0
 13 15  1  0
 14 20  1  0
 15 16  1  0
 15 17  2  0
 17 18  1  0
 17 19  1  0
 19 20  2  0
 20 21  1  0
 21 22  1  0
 22 23  2  0
 22 24  1  0
 24 25  2  0
 24 27  1  0
 25 26  1  0
 26 29  2  0
 27 28  2  0
 28 29  1  0
 29 30  1  0
 30 31  1  0
 31 32  1  0
 32 33  3  0
  9 34  1  0
M  END
$$$$
