
     RDKit          3D

 34 37  0  0  0  0  0  0  0  0999 V2000
   64.8455   45.4892   13.0331 C   0  0  0  0  0  0  0  0  0  0  0  0
   65.6192   46.0132   12.0544 O   0  0  0  0  0  0  0  0  0  0  0  0
   64.8897   46.8037   11.1300 C   0  0  0  0  0  0  0  0  0  0  0  0
   65.8855   47.2385   10.0597 C   0  0  1  0  0  0  0  0  0  0  0  0
   66.9521   48.1689   10.2382 C   0  0  1  0  0  0  0  0  0  0  0  0
   67.3152   46.7372   10.2290 C   0  0  0  0  0  0  0  0  0  0  0  0
   65.2207   46.9809    8.3835 S   0  0  0  0  0  0  0  0  0  0  0  0
   65.8331   48.3760    7.3725 C   0  0  0  0  0  0  0  0  0  0  0  0
   65.6038   48.3499    6.1850 N   0  0  0  0  0  0  0  0  0  0  0  0
   66.4777   49.3936    8.0914 N   0  0  0  0  0  0  0  0  0  0  0  0
   67.3434   49.1715    9.2172 C   0  0  1  0  0  0  0  0  0  0  0  0
   67.1590   50.5538    9.9952 C   0  0  0  0  0  0  0  0  0  0  0  0
   68.7424   49.1167    8.8240 C   0  0  0  0  0  0  0  0  0  0  0  0
   69.2078   48.7423    7.5401 C   0  0  0  0  0  0  0  0  0  0  0  0
   69.7211   49.5617    9.7424 C   0  0  0  0  0  0  0  0  0  0  0  0
   69.4500   49.8771   11.0085 F   0  0  0  0  0  0  0  0  0  0  0  0
   71.0174   49.6191    9.3580 C   0  0  0  0  0  0  0  0  0  0  0  0
   71.9850   50.0525   10.3215 F   0  0  0  0  0  0  0  0  0  0  0  0
   71.4463   49.2770    8.1557 C   0  0  0  0  0  0  0  0  0  0  0  0
   70.5124   48.8130    7.1982 C   0  0  0  0  0  0  0  0  0  0  0  0
   71.0019   48.4184    5.9278 N   0  0  0  0  0  0  0  0  0  0  0  0
   72.0122   47.3953    5.7013 C   0  0  0  0  0  0  0  0  0  0  0  0
   72.7110   47.0642    6.6627 O   0  0  0  0  0  0  0  0  0  0  0  0
   72.1361   46.8333    4.3499 C   0  0  0  0  0  0  0  0  0  0  0  0
   71.3714   47.1719    3.2843 C   0  0  0  0  0  0  0  0  0  0  0  0
   71.5046   46.5336    2.0650 N   0  0  0  0  0  0  0  0  0  0  0  0
   73.0339   45.8474    4.1580 N   0  0  0  0  0  0  0  0  0  0  0  0
   73.1755   45.2246    2.9782 C   0  0  0  0  0  0  0  0  0  0  0  0
   72.3818   45.5746    1.8896 C   0  0  0  0  0  0  0  0  0  0  0  0
   72.5974   44.8892    0.7632 O   0  0  0  0  0  0  0  0  0  0  0  0
   71.8685   44.1471   -0.1030 C   0  0  0  0  0  0  0  0  0  0  0  0
   70.9882   44.8615   -1.0417 C   0  0  0  0  0  0  0  0  0  0  0  0
   70.2598   45.4638   -1.8144 C   0  0  0  0  0  0  0  0  0  0  0  0
   65.5009   48.4384    5.2804 H   0  0  0  0  0  0  0  0  0  0  0  0
  1  2  1  0
  2  3  1  0
  4  3  1  1
  4  5  1  0
  4  6  1  0
  4  7  1  0
  5  6  1  6
  5 11  1  0
  7  8  1  0
  8  9  2  0
  8 10  1  0
 10 11  1  0
 11 12  1  1
 11 13  1  0
 13 14  2  0
 13 15  1  0
 14 20  1  0
 15 16  1  0
 15 17  2  0
 17 18  1  0
 17 19  1  0
 19 20  2  0
 20 21  1  0
 21 22  1  0
 22 23  2  0
 22 24  1  0
 24 25  2  0
 24 27  1  0
 25 26  1  0
 26 29  2  0
 27 28  2  0
 28 29  1  0
 29 30  1  0
 30 31  1  0
 31 32  1  0
 32 33  3  0
  9 34  1  0
M  END
$$$$
