
     RDKit          3D

 34 37  0  0  0  0  0  0  0  0999 V2000
   63.1144   47.0802   12.0787 C   0  0  0  0  0  0  0  0  0  0  0  0
   64.1221   47.0088   11.1784 O   0  0  0  0  0  0  0  0  0  0  0  0
   65.3375   47.5615   11.6567 C   0  0  0  0  0  0  0  0  0  0  0  0
   66.2686   47.6538   10.4521 C   0  0  1  0  0  0  0  0  0  0  0  0
   67.4424   48.4596   10.3623 C   0  0  1  0  0  0  0  0  0  0  0  0
   67.6447   47.0187   10.6166 C   0  0  0  0  0  0  0  0  0  0  0  0
   65.4235   47.1647    8.9146 S   0  0  0  0  0  0  0  0  0  0  0  0
   66.0855   48.2513    7.6014 C   0  0  0  0  0  0  0  0  0  0  0  0
   65.7430   48.0267    6.4631 N   0  0  0  0  0  0  0  0  0  0  0  0
   66.9027   49.2988    8.0519 N   0  0  0  0  0  0  0  0  0  0  0  0
   67.8420   49.1901    9.1345 C   0  0  1  0  0  0  0  0  0  0  0  0
   67.8842   50.7081    9.6283 C   0  0  0  0  0  0  0  0  0  0  0  0
   69.1829   48.8854    8.6615 C   0  0  0  0  0  0  0  0  0  0  0  0
   69.4808   48.0547    7.5540 C   0  0  0  0  0  0  0  0  0  0  0  0
   70.2800   49.5343    9.2737 C   0  0  0  0  0  0  0  0  0  0  0  0
   70.1701   50.2872   10.3678 F   0  0  0  0  0  0  0  0  0  0  0  0
   71.5254   49.3462    8.7787 C   0  0  0  0  0  0  0  0  0  0  0  0
   72.6160   50.0006    9.4381 F   0  0  0  0  0  0  0  0  0  0  0  0
   71.7979   48.5768    7.7393 C   0  0  0  0  0  0  0  0  0  0  0  0
   70.7399   47.8929    7.0933 C   0  0  0  0  0  0  0  0  0  0  0  0
   71.0623   47.0460    6.0034 N   0  0  0  0  0  0  0  0  0  0  0  0
   72.3141   47.0771    5.2611 C   0  0  0  0  0  0  0  0  0  0  0  0
   73.2773   47.6335    5.7949 O   0  0  0  0  0  0  0  0  0  0  0  0
   72.3451   46.4536    3.9316 C   0  0  0  0  0  0  0  0  0  0  0  0
   73.3486   45.6830    3.4477 C   0  0  0  0  0  0  0  0  0  0  0  0
   73.3310   45.2003    2.1521 N   0  0  0  0  0  0  0  0  0  0  0  0
   71.3297   46.7202    3.0874 N   0  0  0  0  0  0  0  0  0  0  0  0
   71.2995   46.2532    1.8301 C   0  0  0  0  0  0  0  0  0  0  0  0
   72.3375   45.4667    1.3386 C   0  0  0  0  0  0  0  0  0  0  0  0
   72.2140   45.0585    0.0725 O   0  0  0  0  0  0  0  0  0  0  0  0
   73.0280   44.6022   -0.9081 C   0  0  0  0  0  0  0  0  0  0  0  0
   72.4256   44.3245   -2.2220 C   0  0  0  0  0  0  0  0  0  0  0  0
   71.9157   44.0922   -3.3066 C   0  0  0  0  0  0  0  0  0  0  0  0
   65.4819   47.7324    5.6374 H   0  0  0  0  0  0  0  0  0  0  0  0
  1  2  1  0
  2  3  1  0
  4  3  1  1
  4  5  1  0
  4  6  1  0
  4  7  1  0
  5  6  1  6
  5 11  1  0
  7  8  1  0
  8  9  2  0
  8 10  1  0
 10 11  1  0
 11 12  1  1
 11 13  1  0
 13 14  2  0
 13 15  1  0
 14 20  1  0
 15 16  1  0
 15 17  2  0
 17 18  1  0
 17 19  1  0
 19 20  2  0
 20 21  1  0
 21 22  1  0
 22 23  2  0
 22 24  1  0
 24 25  2  0
 24 27  1  0
 25 26  1  0
 26 29  2  0
 27 28  2  0
 28 29  1  0
 29 30  1  0
 30 31  1  0
 31 32  1  0
 32 33  3  0
  9 34  1  0
M  END
$$$$
