
     RDKit          3D

 34 37  0  0  0  0  0  0  0  0999 V2000
   65.1037   47.0554   13.8875 C   0  0  0  0  0  0  0  0  0  0  0  0
   65.8669   47.3010   12.7973 O   0  0  0  0  0  0  0  0  0  0  0  0
   65.1974   47.0330   11.5760 C   0  0  0  0  0  0  0  0  0  0  0  0
   66.1977   47.3347   10.4648 C   0  0  1  0  0  0  0  0  0  0  0  0
   67.2911   48.2471   10.5488 C   0  0  1  0  0  0  0  0  0  0  0  0
   67.6139   46.8112   10.6754 C   0  0  0  0  0  0  0  0  0  0  0  0
   65.5143   46.9369    8.8239 S   0  0  0  0  0  0  0  0  0  0  0  0
   66.1586   48.2107    7.6812 C   0  0  0  0  0  0  0  0  0  0  0  0
   65.9204   48.0777    6.5026 N   0  0  0  0  0  0  0  0  0  0  0  0
   66.8365   49.2737    8.2965 N   0  0  0  0  0  0  0  0  0  0  0  0
   67.7033   49.1357    9.4348 C   0  0  1  0  0  0  0  0  0  0  0  0
   67.5631   50.5909   10.0774 C   0  0  0  0  0  0  0  0  0  0  0  0
   69.0975   49.0036    9.0428 C   0  0  0  0  0  0  0  0  0  0  0  0
   69.5431   48.6478    7.7467 C   0  0  0  0  0  0  0  0  0  0  0  0
   70.0991   49.3483    9.9795 C   0  0  0  0  0  0  0  0  0  0  0  0
   69.8435   49.6332   11.2560 F   0  0  0  0  0  0  0  0  0  0  0  0
   71.3981   49.3345    9.6002 C   0  0  0  0  0  0  0  0  0  0  0  0
   72.3877   49.6667   10.5815 F   0  0  0  0  0  0  0  0  0  0  0  0
   71.8091   49.0102    8.3868 C   0  0  0  0  0  0  0  0  0  0  0  0
   70.8511   48.6451    7.4105 C   0  0  0  0  0  0  0  0  0  0  0  0
   71.3194   48.2670    6.1272 N   0  0  0  0  0  0  0  0  0  0  0  0
   72.1779   47.1238    5.8529 C   0  0  0  0  0  0  0  0  0  0  0  0
   72.8884   46.7131    6.7742 O   0  0  0  0  0  0  0  0  0  0  0  0
   72.1461   46.5432    4.5042 C   0  0  0  0  0  0  0  0  0  0  0  0
   72.5265   45.2839    4.1810 C   0  0  0  0  0  0  0  0  0  0  0  0
   72.5384   44.8447    2.8699 N   0  0  0  0  0  0  0  0  0  0  0  0
   71.7766   47.3414    3.4838 N   0  0  0  0  0  0  0  0  0  0  0  0
   71.7793   46.9246    2.2086 C   0  0  0  0  0  0  0  0  0  0  0  0
   72.1772   45.6307    1.8843 C   0  0  0  0  0  0  0  0  0  0  0  0
   72.1500   45.3179    0.5856 O   0  0  0  0  0  0  0  0  0  0  0  0
   72.0681   44.1937   -0.1638 C   0  0  0  0  0  0  0  0  0  0  0  0
   70.9649   43.2618    0.1208 C   0  0  0  0  0  0  0  0  0  0  0  0
   70.0563   42.4801    0.3524 C   0  0  0  0  0  0  0  0  0  0  0  0
   65.8504   48.0420    5.5913 H   0  0  0  0  0  0  0  0  0  0  0  0
  1  2  1  0
  2  3  1  0
  4  3  1  1
  4  5  1  0
  4  6  1  0
  4  7  1  0
  5  6  1  6
  5 11  1  0
  7  8  1  0
  8  9  2  0
  8 10  1  0
 10 11  1  0
 11 12  1  1
 11 13  1  0
 13 14  2  0
 13 15  1  0
 14 20  1  0
 15 16  1  0
 15 17  2  0
 17 18  1  0
 17 19  1  0
 19 20  2  0
 20 21  1  0
 21 22  1  0
 22 23  2  0
 22 24  1  0
 24 25  2  0
 24 27  1  0
 25 26  1  0
 26 29  2  0
 27 28  2  0
 28 29  1  0
 29 30  1  0
 30 31  1  0
 31 32  1  0
 32 33  3  0
  9 34  1  0
M  END
$$$$
