
     RDKit          3D

 34 37  0  0  0  0  0  0  0  0999 V2000
   62.9303   47.7490   11.9941 C   0  0  0  0  0  0  0  0  0  0  0  0
   63.8589   47.7848   11.0105 O   0  0  0  0  0  0  0  0  0  0  0  0
   65.1901   47.7576   11.4989 C   0  0  0  0  0  0  0  0  0  0  0  0
   66.0966   47.8231   10.2741 C   0  0  1  0  0  0  0  0  0  0  0  0
   67.2934   48.5911   10.1595 C   0  0  1  0  0  0  0  0  0  0  0  0
   67.4550   47.1438   10.4066 C   0  0  0  0  0  0  0  0  0  0  0  0
   65.2022   47.3653    8.7549 S   0  0  0  0  0  0  0  0  0  0  0  0
   65.8693   48.4334    7.4292 C   0  0  0  0  0  0  0  0  0  0  0  0
   65.4945   48.2228    6.2985 N   0  0  0  0  0  0  0  0  0  0  0  0
   66.7295   49.4531    7.8632 N   0  0  0  0  0  0  0  0  0  0  0  0
   67.6887   49.3115    8.9245 C   0  0  1  0  0  0  0  0  0  0  0  0
   67.7906   50.8262    9.4200 C   0  0  0  0  0  0  0  0  0  0  0  0
   69.0083   48.9652    8.4210 C   0  0  0  0  0  0  0  0  0  0  0  0
   69.2542   48.2011    7.2545 C   0  0  0  0  0  0  0  0  0  0  0  0
   70.1430   49.5040    9.0704 C   0  0  0  0  0  0  0  0  0  0  0  0
   70.0801   50.1809   10.2166 F   0  0  0  0  0  0  0  0  0  0  0  0
   71.3739   49.2809    8.5542 C   0  0  0  0  0  0  0  0  0  0  0  0
   72.5025   49.8222    9.2510 F   0  0  0  0  0  0  0  0  0  0  0  0
   71.5982   48.5743    7.4602 C   0  0  0  0  0  0  0  0  0  0  0  0
   70.5004   48.0009    6.7742 C   0  0  0  0  0  0  0  0  0  0  0  0
   70.7699   47.2178    5.6239 N   0  0  0  0  0  0  0  0  0  0  0  0
   72.0815   47.0478    5.0157 C   0  0  0  0  0  0  0  0  0  0  0  0
   73.0475   47.5449    5.6005 O   0  0  0  0  0  0  0  0  0  0  0  0
   72.1661   46.3058    3.7510 C   0  0  0  0  0  0  0  0  0  0  0  0
   73.2757   45.6955    3.2700 C   0  0  0  0  0  0  0  0  0  0  0  0
   73.2867   45.0852    2.0293 N   0  0  0  0  0  0  0  0  0  0  0  0
   71.0755   46.2826    2.9605 N   0  0  0  0  0  0  0  0  0  0  0  0
   71.0729   45.6892    1.7574 C   0  0  0  0  0  0  0  0  0  0  0  0
   72.2191   45.0693    1.2679 C   0  0  0  0  0  0  0  0  0  0  0  0
   72.1131   44.5144    0.0571 O   0  0  0  0  0  0  0  0  0  0  0  0
   72.1016   44.9332   -1.2300 C   0  0  0  0  0  0  0  0  0  0  0  0
   73.2920   45.6409   -1.7288 C   0  0  0  0  0  0  0  0  0  0  0  0
   74.2769   46.2241   -2.1532 C   0  0  0  0  0  0  0  0  0  0  0  0
   65.2280   47.9383    5.4710 H   0  0  0  0  0  0  0  0  0  0  0  0
  1  2  1  0
  2  3  1  0
  4  3  1  1
  4  5  1  0
  4  6  1  0
  4  7  1  0
  5  6  1  6
  5 11  1  0
  7  8  1  0
  8  9  2  0
  8 10  1  0
 10 11  1  0
 11 12  1  1
 11 13  1  0
 13 14  2  0
 13 15  1  0
 14 20  1  0
 15 16  1  0
 15 17  2  0
 17 18  1  0
 17 19  1  0
 19 20  2  0
 20 21  1  0
 21 22  1  0
 22 23  2  0
 22 24  1  0
 24 25  2  0
 24 27  1  0
 25 26  1  0
 26 29  2  0
 27 28  2  0
 28 29  1  0
 29 30  1  0
 30 31  1  0
 31 32  1  0
 32 33  3  0
  9 34  1  0
M  END
$$$$
