
     RDKit          3D

 34 37  0  0  0  0  0  0  0  0999 V2000
   63.3161   46.9352   11.6073 C   0  0  0  0  0  0  0  0  0  0  0  0
   64.3104   47.1109   10.7066 O   0  0  0  0  0  0  0  0  0  0  0  0
   65.5819   47.2934   11.3080 C   0  0  0  0  0  0  0  0  0  0  0  0
   66.5613   47.5523   10.1677 C   0  0  1  0  0  0  0  0  0  0  0  0
   67.6454   48.4793   10.1906 C   0  0  1  0  0  0  0  0  0  0  0  0
   67.9865   47.0547   10.3803 C   0  0  0  0  0  0  0  0  0  0  0  0
   65.8571   47.0692    8.5588 S   0  0  0  0  0  0  0  0  0  0  0  0
   66.4689   48.2937    7.3465 C   0  0  0  0  0  0  0  0  0  0  0  0
   66.2141   48.1019    6.1795 N   0  0  0  0  0  0  0  0  0  0  0  0
   67.1441   49.3921    7.8994 N   0  0  0  0  0  0  0  0  0  0  0  0
   68.0300   49.3180    9.0290 C   0  0  1  0  0  0  0  0  0  0  0  0
   67.8831   50.8007    9.6037 C   0  0  0  0  0  0  0  0  0  0  0  0
   69.4193   49.1823    8.6214 C   0  0  0  0  0  0  0  0  0  0  0  0
   69.8489   48.7781    7.3340 C   0  0  0  0  0  0  0  0  0  0  0  0
   70.4316   49.5733    9.5280 C   0  0  0  0  0  0  0  0  0  0  0  0
   70.1924   49.9073   10.7958 F   0  0  0  0  0  0  0  0  0  0  0  0
   71.7249   49.5554    9.1299 C   0  0  0  0  0  0  0  0  0  0  0  0
   72.7258   49.9356   10.0817 F   0  0  0  0  0  0  0  0  0  0  0  0
   72.1207   49.1858    7.9244 C   0  0  0  0  0  0  0  0  0  0  0  0
   71.1517   48.7732    6.9783 C   0  0  0  0  0  0  0  0  0  0  0  0
   71.6044   48.3475    5.7043 N   0  0  0  0  0  0  0  0  0  0  0  0
   72.3398   47.1183    5.4452 C   0  0  0  0  0  0  0  0  0  0  0  0
   73.0942   46.7100    6.3321 O   0  0  0  0  0  0  0  0  0  0  0  0
   72.1409   46.4535    4.1507 C   0  0  0  0  0  0  0  0  0  0  0  0
   72.9057   45.4510    3.6558 C   0  0  0  0  0  0  0  0  0  0  0  0
   72.6944   44.9357    2.3902 N   0  0  0  0  0  0  0  0  0  0  0  0
   71.1632   46.9176    3.3484 N   0  0  0  0  0  0  0  0  0  0  0  0
   70.9456   46.4219    2.1208 C   0  0  0  0  0  0  0  0  0  0  0  0
   71.7399   45.3956    1.6174 C   0  0  0  0  0  0  0  0  0  0  0  0
   71.4448   44.9787    0.3828 O   0  0  0  0  0  0  0  0  0  0  0  0
   72.0647   44.3009   -0.6114 C   0  0  0  0  0  0  0  0  0  0  0  0
   72.9487   43.1872   -0.2312 C   0  0  0  0  0  0  0  0  0  0  0  0
   73.6738   42.2559    0.0806 C   0  0  0  0  0  0  0  0  0  0  0  0
   65.9151   47.8970    5.3398 H   0  0  0  0  0  0  0  0  0  0  0  0
  1  2  1  0
  2  3  1  0
  4  3  1  1
  4  5  1  0
  4  6  1  0
  4  7  1  0
  5  6  1  6
  5 11  1  0
  7  8  1  0
  8  9  2  0
  8 10  1  0
 10 11  1  0
 11 12  1  1
 11 13  1  0
 13 14  2  0
 13 15  1  0
 14 20  1  0
 15 16  1  0
 15 17  2  0
 17 18  1  0
 17 19  1  0
 19 20  2  0
 20 21  1  0
 21 22  1  0
 22 23  2  0
 22 24  1  0
 24 25  2  0
 24 27  1  0
 25 26  1  0
 26 29  2  0
 27 28  2  0
 28 29  1  0
 29 30  1  0
 30 31  1  0
 31 32  1  0
 32 33  3  0
  9 34  1  0
M  END
$$$$
