
     RDKit          3D

 34 37  0  0  0  0  0  0  0  0999 V2000
   63.1831   47.4867   12.0033 C   0  0  0  0  0  0  0  0  0  0  0  0
   64.1259   47.5930   11.0385 O   0  0  0  0  0  0  0  0  0  0  0  0
   65.4475   47.4443   11.5313 C   0  0  0  0  0  0  0  0  0  0  0  0
   66.3764   47.7035   10.3496 C   0  0  1  0  0  0  0  0  0  0  0  0
   67.4867   48.5992   10.3394 C   0  0  1  0  0  0  0  0  0  0  0  0
   67.7953   47.1615   10.4790 C   0  0  0  0  0  0  0  0  0  0  0  0
   65.5799   47.2795    8.7673 S   0  0  0  0  0  0  0  0  0  0  0  0
   66.1662   48.5157    7.5543 C   0  0  0  0  0  0  0  0  0  0  0  0
   65.8486   48.3595    6.3975 N   0  0  0  0  0  0  0  0  0  0  0  0
   66.8994   49.5810    8.0978 N   0  0  0  0  0  0  0  0  0  0  0  0
   67.8376   49.4549    9.1795 C   0  0  1  0  0  0  0  0  0  0  0  0
   67.7623   50.9266    9.7947 C   0  0  0  0  0  0  0  0  0  0  0  0
   69.2006   49.2905    8.6999 C   0  0  0  0  0  0  0  0  0  0  0  0
   69.5544   48.7758    7.4290 C   0  0  0  0  0  0  0  0  0  0  0  0
   70.2625   49.7657    9.5036 C   0  0  0  0  0  0  0  0  0  0  0  0
   70.0982   50.2098   10.7493 F   0  0  0  0  0  0  0  0  0  0  0  0
   71.5289   49.7190    9.0289 C   0  0  0  0  0  0  0  0  0  0  0  0
   72.5825   50.1873    9.8792 F   0  0  0  0  0  0  0  0  0  0  0  0
   71.8538   49.2458    7.8385 C   0  0  0  0  0  0  0  0  0  0  0  0
   70.8327   48.7459    6.9947 C   0  0  0  0  0  0  0  0  0  0  0  0
   71.2106   48.2110    5.7376 N   0  0  0  0  0  0  0  0  0  0  0  0
   72.4347   47.4672    5.4784 C   0  0  0  0  0  0  0  0  0  0  0  0
   73.3699   47.6193    6.2688 O   0  0  0  0  0  0  0  0  0  0  0  0
   72.4770   46.5955    4.2970 C   0  0  0  0  0  0  0  0  0  0  0  0
   73.5187   45.8074    3.9382 C   0  0  0  0  0  0  0  0  0  0  0  0
   73.5038   45.0771    2.7641 N   0  0  0  0  0  0  0  0  0  0  0  0
   71.4267   46.6265    3.4539 N   0  0  0  0  0  0  0  0  0  0  0  0
   71.3990   45.9184    2.3148 C   0  0  0  0  0  0  0  0  0  0  0  0
   72.4760   45.1154    1.9504 C   0  0  0  0  0  0  0  0  0  0  0  0
   72.3511   44.4574    0.7943 O   0  0  0  0  0  0  0  0  0  0  0  0
   72.0766   44.7598   -0.4962 C   0  0  0  0  0  0  0  0  0  0  0  0
   71.1049   45.8348   -0.7542 C   0  0  0  0  0  0  0  0  0  0  0  0
   70.2907   46.7201   -0.9630 C   0  0  0  0  0  0  0  0  0  0  0  0
   65.7263   48.2858    5.4941 H   0  0  0  0  0  0  0  0  0  0  0  0
  1  2  1  0
  2  3  1  0
  4  3  1  1
  4  5  1  0
  4  6  1  0
  4  7  1  0
  5  6  1  6
  5 11  1  0
  7  8  1  0
  8  9  2  0
  8 10  1  0
 10 11  1  0
 11 12  1  1
 11 13  1  0
 13 14  2  0
 13 15  1  0
 14 20  1  0
 15 16  1  0
 15 17  2  0
 17 18  1  0
 17 19  1  0
 19 20  2  0
 20 21  1  0
 21 22  1  0
 22 23  2  0
 22 24  1  0
 24 25  2  0
 24 27  1  0
 25 26  1  0
 26 29  2  0
 27 28  2  0
 28 29  1  0
 29 30  1  0
 30 31  1  0
 31 32  1  0
 32 33  3  0
  9 34  1  0
M  END
$$$$
