
     RDKit          3D

 34 37  0  0  0  0  0  0  0  0999 V2000
   63.2431   47.0412   11.3734 C   0  0  0  0  0  0  0  0  0  0  0  0
   64.3287   46.7030   10.6398 O   0  0  0  0  0  0  0  0  0  0  0  0
   65.5448   47.1836   11.1890 C   0  0  0  0  0  0  0  0  0  0  0  0
   66.4761   47.4387   10.0083 C   0  0  1  0  0  0  0  0  0  0  0  0
   67.5688   48.3555    9.9878 C   0  0  1  0  0  0  0  0  0  0  0  0
   67.9044   46.9270   10.1566 C   0  0  0  0  0  0  0  0  0  0  0  0
   65.6982   46.9695    8.4295 S   0  0  0  0  0  0  0  0  0  0  0  0
   66.2683   48.1938    7.1969 C   0  0  0  0  0  0  0  0  0  0  0  0
   65.9612   48.0097    6.0413 N   0  0  0  0  0  0  0  0  0  0  0  0
   66.9771   49.2833    7.7245 N   0  0  0  0  0  0  0  0  0  0  0  0
   67.9105   49.1959    8.8141 C   0  0  1  0  0  0  0  0  0  0  0  0
   67.8027   50.6772    9.4008 C   0  0  0  0  0  0  0  0  0  0  0  0
   69.2795   49.0492    8.3460 C   0  0  0  0  0  0  0  0  0  0  0  0
   69.6490   48.6219    7.0475 C   0  0  0  0  0  0  0  0  0  0  0  0
   70.3329   49.4528    9.1985 C   0  0  0  0  0  0  0  0  0  0  0  0
   70.1526   49.8092   10.4699 F   0  0  0  0  0  0  0  0  0  0  0  0
   71.6067   49.4244    8.7421 C   0  0  0  0  0  0  0  0  0  0  0  0
   72.6508   49.8179    9.6406 F   0  0  0  0  0  0  0  0  0  0  0  0
   71.9463   49.0330    7.5264 C   0  0  0  0  0  0  0  0  0  0  0  0
   70.9341   48.6071    6.6328 C   0  0  0  0  0  0  0  0  0  0  0  0
   71.3272   48.1584    5.3470 N   0  0  0  0  0  0  0  0  0  0  0  0
   72.1232   46.9686    5.0830 C   0  0  0  0  0  0  0  0  0  0  0  0
   72.8902   46.5894    5.9720 O   0  0  0  0  0  0  0  0  0  0  0  0
   71.9661   46.3064    3.7814 C   0  0  0  0  0  0  0  0  0  0  0  0
   72.7573   45.3170    3.3018 C   0  0  0  0  0  0  0  0  0  0  0  0
   72.5848   44.8040    2.0294 N   0  0  0  0  0  0  0  0  0  0  0  0
   71.0020   46.7598    2.9568 N   0  0  0  0  0  0  0  0  0  0  0  0
   70.8221   46.2662    1.7224 C   0  0  0  0  0  0  0  0  0  0  0  0
   71.6432   45.2534    1.2349 C   0  0  0  0  0  0  0  0  0  0  0  0
   71.3849   44.8374   -0.0082 O   0  0  0  0  0  0  0  0  0  0  0  0
   71.7839   43.8325   -0.8225 C   0  0  0  0  0  0  0  0  0  0  0  0
   72.3250   42.6170   -0.1929 C   0  0  0  0  0  0  0  0  0  0  0  0
   72.7713   41.6029    0.3196 C   0  0  0  0  0  0  0  0  0  0  0  0
   65.6917   47.9943    5.1674 H   0  0  0  0  0  0  0  0  0  0  0  0
  1  2  1  0
  2  3  1  0
  4  3  1  1
  4  5  1  0
  4  6  1  0
  4  7  1  0
  5  6  1  6
  5 11  1  0
  7  8  1  0
  8  9  2  0
  8 10  1  0
 10 11  1  0
 11 12  1  1
 11 13  1  0
 13 14  2  0
 13 15  1  0
 14 20  1  0
 15 16  1  0
 15 17  2  0
 17 18  1  0
 17 19  1  0
 19 20  2  0
 20 21  1  0
 21 22  1  0
 22 23  2  0
 22 24  1  0
 24 25  2  0
 24 27  1  0
 25 26  1  0
 26 29  2  0
 27 28  2  0
 28 29  1  0
 29 30  1  0
 30 31  1  0
 31 32  1  0
 32 33  3  0
  9 34  1  0
M  END
$$$$
