
     RDKit          3D

 34 37  0  0  0  0  0  0  0  0999 V2000
   63.4129   47.0211   11.0015 C   0  0  0  0  0  0  0  0  0  0  0  0
   64.6266   46.4970   10.7127 O   0  0  0  0  0  0  0  0  0  0  0  0
   65.7033   47.2912   11.1833 C   0  0  0  0  0  0  0  0  0  0  0  0
   66.6445   47.4814    9.9983 C   0  0  1  0  0  0  0  0  0  0  0  0
   67.7259   48.4093    9.9297 C   0  0  1  0  0  0  0  0  0  0  0  0
   68.0774   46.9992   10.1942 C   0  0  0  0  0  0  0  0  0  0  0  0
   65.8902   46.9009    8.4453 S   0  0  0  0  0  0  0  0  0  0  0  0
   66.4587   48.0502    7.1418 C   0  0  0  0  0  0  0  0  0  0  0  0
   66.1668   47.7876    5.9975 N   0  0  0  0  0  0  0  0  0  0  0  0
   67.1480   49.1808    7.6049 N   0  0  0  0  0  0  0  0  0  0  0  0
   68.0702   49.1764    8.7075 C   0  0  1  0  0  0  0  0  0  0  0  0
   67.9375   50.6910    9.1958 C   0  0  0  0  0  0  0  0  0  0  0  0
   69.4461   49.0177    8.2641 C   0  0  0  0  0  0  0  0  0  0  0  0
   69.8349   48.5530    6.9841 C   0  0  0  0  0  0  0  0  0  0  0  0
   70.4865   49.4471    9.1199 C   0  0  0  0  0  0  0  0  0  0  0  0
   70.2872   49.8402   10.3775 F   0  0  0  0  0  0  0  0  0  0  0  0
   71.7668   49.4069    8.6833 C   0  0  0  0  0  0  0  0  0  0  0  0
   72.7974   49.8276    9.5851 F   0  0  0  0  0  0  0  0  0  0  0  0
   72.1246   48.9806    7.4846 C   0  0  0  0  0  0  0  0  0  0  0  0
   71.1261   48.5276    6.5890 C   0  0  0  0  0  0  0  0  0  0  0  0
   71.5384   48.0421    5.3228 N   0  0  0  0  0  0  0  0  0  0  0  0
   72.4563   46.9325    5.1104 C   0  0  0  0  0  0  0  0  0  0  0  0
   73.3398   46.7567    5.9536 O   0  0  0  0  0  0  0  0  0  0  0  0
   72.2747   46.1050    3.9105 C   0  0  0  0  0  0  0  0  0  0  0  0
   73.1578   45.1888    3.4461 C   0  0  0  0  0  0  0  0  0  0  0  0
   72.9411   44.5093    2.2615 N   0  0  0  0  0  0  0  0  0  0  0  0
   71.1749   46.3151    3.1614 N   0  0  0  0  0  0  0  0  0  0  0  0
   70.9516   45.6581    2.0133 C   0  0  0  0  0  0  0  0  0  0  0  0
   71.8669   44.7223    1.5400 C   0  0  0  0  0  0  0  0  0  0  0  0
   71.5537   44.1293    0.3845 O   0  0  0  0  0  0  0  0  0  0  0  0
   72.2104   43.6699   -0.7064 C   0  0  0  0  0  0  0  0  0  0  0  0
   72.8840   44.6579   -1.5646 C   0  0  0  0  0  0  0  0  0  0  0  0
   73.4489   45.4810   -2.2673 C   0  0  0  0  0  0  0  0  0  0  0  0
   66.0391   47.6726    5.0992 H   0  0  0  0  0  0  0  0  0  0  0  0
  1  2  1  0
  2  3  1  0
  4  3  1  1
  4  5  1  0
  4  6  1  0
  4  7  1  0
  5  6  1  6
  5 11  1  0
  7  8  1  0
  8  9  2  0
  8 10  1  0
 10 11  1  0
 11 12  1  1
 11 13  1  0
 13 14  2  0
 13 15  1  0
 14 20  1  0
 15 16  1  0
 15 17  2  0
 17 18  1  0
 17 19  1  0
 19 20  2  0
 20 21  1  0
 21 22  1  0
 22 23  2  0
 22 24  1  0
 24 25  2  0
 24 27  1  0
 25 26  1  0
 26 29  2  0
 27 28  2  0
 28 29  1  0
 29 30  1  0
 30 31  1  0
 31 32  1  0
 32 33  3  0
  9 34  1  0
M  END
$$$$
