
     RDKit          3D

 34 37  0  0  0  0  0  0  0  0999 V2000
   63.8421   45.5808   11.6979 C   0  0  0  0  0  0  0  0  0  0  0  0
   64.7865   45.9728   10.8115 O   0  0  0  0  0  0  0  0  0  0  0  0
   65.3807   47.2171   11.1435 C   0  0  0  0  0  0  0  0  0  0  0  0
   66.3874   47.5189   10.0381 C   0  0  1  0  0  0  0  0  0  0  0  0
   67.4228   48.4985   10.0945 C   0  0  1  0  0  0  0  0  0  0  0  0
   67.8266   47.0934   10.3057 C   0  0  0  0  0  0  0  0  0  0  0  0
   65.7676   46.9940    8.4077 S   0  0  0  0  0  0  0  0  0  0  0  0
   66.3624   48.2416    7.2106 C   0  0  0  0  0  0  0  0  0  0  0  0
   66.1604   48.0320    6.0364 N   0  0  0  0  0  0  0  0  0  0  0  0
   66.9617   49.3747    7.7807 N   0  0  0  0  0  0  0  0  0  0  0  0
   67.8081   49.3498    8.9423 C   0  0  1  0  0  0  0  0  0  0  0  0
   67.5673   50.8260    9.5017 C   0  0  0  0  0  0  0  0  0  0  0  0
   69.2165   49.2811    8.5866 C   0  0  0  0  0  0  0  0  0  0  0  0
   69.7143   48.8461    7.3344 C   0  0  0  0  0  0  0  0  0  0  0  0
   70.1712   49.7742    9.5058 C   0  0  0  0  0  0  0  0  0  0  0  0
   69.8682   50.1501   10.7479 F   0  0  0  0  0  0  0  0  0  0  0  0
   71.4764   49.8175    9.1508 C   0  0  0  0  0  0  0  0  0  0  0  0
   72.4189   50.3011   10.1153 F   0  0  0  0  0  0  0  0  0  0  0  0
   71.9356   49.4186    7.9776 C   0  0  0  0  0  0  0  0  0  0  0  0
   71.0267   48.9049    7.0214 C   0  0  0  0  0  0  0  0  0  0  0  0
   71.5483   48.4504    5.7843 N   0  0  0  0  0  0  0  0  0  0  0  0
   72.5887   47.4435    5.6340 C   0  0  0  0  0  0  0  0  0  0  0  0
   73.3775   47.2974    6.5715 O   0  0  0  0  0  0  0  0  0  0  0  0
   72.6338   46.6775    4.3816 C   0  0  0  0  0  0  0  0  0  0  0  0
   73.6582   45.8878    3.9792 C   0  0  0  0  0  0  0  0  0  0  0  0
   73.6506   45.2641    2.7452 N   0  0  0  0  0  0  0  0  0  0  0  0
   71.6080   46.8191    3.5199 N   0  0  0  0  0  0  0  0  0  0  0  0
   71.5874   46.2148    2.3223 C   0  0  0  0  0  0  0  0  0  0  0  0
   72.6467   45.4095    1.9139 C   0  0  0  0  0  0  0  0  0  0  0  0
   72.5311   44.8599    0.7016 O   0  0  0  0  0  0  0  0  0  0  0  0
   71.5453   44.6402   -0.1996 C   0  0  0  0  0  0  0  0  0  0  0  0
   71.1900   45.7440   -1.1062 C   0  0  0  0  0  0  0  0  0  0  0  0
   70.8941   46.6518   -1.8668 C   0  0  0  0  0  0  0  0  0  0  0  0
   66.0826   47.9766    5.1268 H   0  0  0  0  0  0  0  0  0  0  0  0
  1  2  1  0
  2  3  1  0
  4  3  1  1
  4  5  1  0
  4  6  1  0
  4  7  1  0
  5  6  1  6
  5 11  1  0
  7  8  1  0
  8  9  2  0
  8 10  1  0
 10 11  1  0
 11 12  1  1
 11 13  1  0
 13 14  2  0
 13 15  1  0
 14 20  1  0
 15 16  1  0
 15 17  2  0
 17 18  1  0
 17 19  1  0
 19 20  2  0
 20 21  1  0
 21 22  1  0
 22 23  2  0
 22 24  1  0
 24 25  2  0
 24 27  1  0
 25 26  1  0
 26 29  2  0
 27 28  2  0
 28 29  1  0
 29 30  1  0
 30 31  1  0
 31 32  1  0
 32 33  3  0
  9 34  1  0
M  END
$$$$
