
     RDKit          3D

 34 37  0  0  0  0  0  0  0  0999 V2000
   62.8416   48.6450   11.8607 C   0  0  0  0  0  0  0  0  0  0  0  0
   63.8186   48.5652   10.9279 O   0  0  0  0  0  0  0  0  0  0  0  0
   65.0683   48.1602   11.4625 C   0  0  0  0  0  0  0  0  0  0  0  0
   66.0606   48.1958   10.3047 C   0  0  1  0  0  0  0  0  0  0  0  0
   67.2717   48.9486   10.2640 C   0  0  1  0  0  0  0  0  0  0  0  0
   67.3976   47.5038   10.5444 C   0  0  0  0  0  0  0  0  0  0  0  0
   65.2711   47.7231    8.7327 S   0  0  0  0  0  0  0  0  0  0  0  0
   66.0440   48.7621    7.4417 C   0  0  0  0  0  0  0  0  0  0  0  0
   65.7481   48.5372    6.2905 N   0  0  0  0  0  0  0  0  0  0  0  0
   66.8834   49.7791    7.9203 N   0  0  0  0  0  0  0  0  0  0  0  0
   67.7627   49.6444    9.0493 C   0  0  1  0  0  0  0  0  0  0  0  0
   67.8475   51.1657    9.5274 C   0  0  0  0  0  0  0  0  0  0  0  0
   69.1106   49.2754    8.6469 C   0  0  0  0  0  0  0  0  0  0  0  0
   69.4294   48.4867    7.5148 C   0  0  0  0  0  0  0  0  0  0  0  0
   70.2026   49.8150    9.3650 C   0  0  0  0  0  0  0  0  0  0  0  0
   70.0668   50.5141   10.4914 F   0  0  0  0  0  0  0  0  0  0  0  0
   71.4643   49.5698    8.9413 C   0  0  0  0  0  0  0  0  0  0  0  0
   72.5470   50.1129    9.7062 F   0  0  0  0  0  0  0  0  0  0  0  0
   71.7572   48.8403    7.8789 C   0  0  0  0  0  0  0  0  0  0  0  0
   70.7041   48.2650    7.1276 C   0  0  0  0  0  0  0  0  0  0  0  0
   71.0451   47.4576    6.0136 N   0  0  0  0  0  0  0  0  0  0  0  0
   72.3088   47.5160    5.2934 C   0  0  0  0  0  0  0  0  0  0  0  0
   73.2441   48.1114    5.8346 O   0  0  0  0  0  0  0  0  0  0  0  0
   72.3838   46.8716    3.9756 C   0  0  0  0  0  0  0  0  0  0  0  0
   71.3977   46.8638    3.0468 C   0  0  0  0  0  0  0  0  0  0  0  0
   71.5247   46.1635    1.8613 N   0  0  0  0  0  0  0  0  0  0  0  0
   73.4934   46.1665    3.6819 N   0  0  0  0  0  0  0  0  0  0  0  0
   73.6298   45.4875    2.5329 C   0  0  0  0  0  0  0  0  0  0  0  0
   72.6095   45.4799    1.5861 C   0  0  0  0  0  0  0  0  0  0  0  0
   72.8424   44.7679    0.4798 O   0  0  0  0  0  0  0  0  0  0  0  0
   72.1537   44.3926   -0.6234 C   0  0  0  0  0  0  0  0  0  0  0  0
   71.5457   45.4534   -1.4429 C   0  0  0  0  0  0  0  0  0  0  0  0
   71.0309   46.3299   -2.1189 C   0  0  0  0  0  0  0  0  0  0  0  0
   65.6069   48.4620    5.3899 H   0  0  0  0  0  0  0  0  0  0  0  0
  1  2  1  0
  2  3  1  0
  4  3  1  1
  4  5  1  0
  4  6  1  0
  4  7  1  0
  5  6  1  6
  5 11  1  0
  7  8  1  0
  8  9  2  0
  8 10  1  0
 10 11  1  0
 11 12  1  1
 11 13  1  0
 13 14  2  0
 13 15  1  0
 14 20  1  0
 15 16  1  0
 15 17  2  0
 17 18  1  0
 17 19  1  0
 19 20  2  0
 20 21  1  0
 21 22  1  0
 22 23  2  0
 22 24  1  0
 24 25  2  0
 24 27  1  0
 25 26  1  0
 26 29  2  0
 27 28  2  0
 28 29  1  0
 29 30  1  0
 30 31  1  0
 31 32  1  0
 32 33  3  0
  9 34  1  0
M  END
$$$$
