
     RDKit          3D

 34 37  0  0  0  0  0  0  0  0999 V2000
   62.6962   48.0717   11.8179 C   0  0  0  0  0  0  0  0  0  0  0  0
   63.6690   48.0698   10.8774 O   0  0  0  0  0  0  0  0  0  0  0  0
   64.9647   47.8618   11.4156 C   0  0  0  0  0  0  0  0  0  0  0  0
   65.9304   47.9077   10.2359 C   0  0  1  0  0  0  0  0  0  0  0  0
   67.1075   48.7089   10.1493 C   0  0  1  0  0  0  0  0  0  0  0  0
   67.3002   47.2787   10.4643 C   0  0  0  0  0  0  0  0  0  0  0  0
   65.1293   47.3603    8.6943 S   0  0  0  0  0  0  0  0  0  0  0  0
   65.8306   48.3956    7.3602 C   0  0  0  0  0  0  0  0  0  0  0  0
   65.5208   48.1276    6.2219 N   0  0  0  0  0  0  0  0  0  0  0  0
   66.6360   49.4593    7.7938 N   0  0  0  0  0  0  0  0  0  0  0  0
   67.5434   49.3917    8.9065 C   0  0  1  0  0  0  0  0  0  0  0  0
   67.5736   50.9275    9.3429 C   0  0  0  0  0  0  0  0  0  0  0  0
   68.8970   49.0686    8.4845 C   0  0  0  0  0  0  0  0  0  0  0  0
   69.2329   48.4182    7.2723 C   0  0  0  0  0  0  0  0  0  0  0  0
   69.9782   49.5162    9.2784 C   0  0  0  0  0  0  0  0  0  0  0  0
   69.8253   50.0779   10.4772 F   0  0  0  0  0  0  0  0  0  0  0  0
   71.2461   49.3188    8.8485 C   0  0  0  0  0  0  0  0  0  0  0  0
   72.3172   49.7644    9.6891 F   0  0  0  0  0  0  0  0  0  0  0  0
   71.5550   48.7190    7.7121 C   0  0  0  0  0  0  0  0  0  0  0  0
   70.5133   48.2398    6.8817 C   0  0  0  0  0  0  0  0  0  0  0  0
   70.8711   47.5685    5.6857 N   0  0  0  0  0  0  0  0  0  0  0  0
   72.2274   47.2004    5.3062 C   0  0  0  0  0  0  0  0  0  0  0  0
   73.1369   47.5054    6.0821 O   0  0  0  0  0  0  0  0  0  0  0  0
   72.4222   46.5005    4.0296 C   0  0  0  0  0  0  0  0  0  0  0  0
   73.3216   45.5132    3.8034 C   0  0  0  0  0  0  0  0  0  0  0  0
   73.4925   44.9629    2.5465 N   0  0  0  0  0  0  0  0  0  0  0  0
   71.7019   46.9137    2.9688 N   0  0  0  0  0  0  0  0  0  0  0  0
   71.8555   46.3838    1.7460 C   0  0  0  0  0  0  0  0  0  0  0  0
   72.7861   45.3734    1.5207 C   0  0  0  0  0  0  0  0  0  0  0  0
   72.8654   44.9193    0.2667 O   0  0  0  0  0  0  0  0  0  0  0  0
   72.2387   43.9931   -0.4960 C   0  0  0  0  0  0  0  0  0  0  0  0
   70.9019   43.5484   -0.0698 C   0  0  0  0  0  0  0  0  0  0  0  0
   69.7940   43.1862    0.2931 C   0  0  0  0  0  0  0  0  0  0  0  0
   65.3146   48.0483    5.3344 H   0  0  0  0  0  0  0  0  0  0  0  0
  1  2  1  0
  2  3  1  0
  4  3  1  1
  4  5  1  0
  4  6  1  0
  4  7  1  0
  5  6  1  6
  5 11  1  0
  7  8  1  0
  8  9  2  0
  8 10  1  0
 10 11  1  0
 11 12  1  1
 11 13  1  0
 13 14  2  0
 13 15  1  0
 14 20  1  0
 15 16  1  0
 15 17  2  0
 17 18  1  0
 17 19  1  0
 19 20  2  0
 20 21  1  0
 21 22  1  0
 22 23  2  0
 22 24  1  0
 24 25  2  0
 24 27  1  0
 25 26  1  0
 26 29  2  0
 27 28  2  0
 28 29  1  0
 29 30  1  0
 30 31  1  0
 31 32  1  0
 32 33  3  0
  9 34  1  0
M  END
$$$$
