
     RDKit          3D

 21 23  0  0  0  0  0  0  0  0999 V2000
  -25.0794   96.1364   53.5275 C   0  0  2  0  0  0  0  0  0  0  0  0
  -24.6816   96.3579   52.1588 N   0  0  0  0  0  0  0  0  0  0  0  0
  -24.1292   96.6023   54.4295 O   0  0  0  0  0  0  0  0  0  0  0  0
  -25.4762   96.9120   51.2306 C   0  0  0  0  0  0  0  0  0  0  0  0
  -26.7409   97.4033   51.1901 N   0  0  0  0  0  0  0  0  0  0  0  0
  -26.5670   94.2498   53.4595 O   0  0  0  0  0  0  0  0  0  0  0  0
  -27.3118   97.9149   50.1030 C   0  0  0  0  0  0  0  0  0  0  0  0
  -26.6558   97.9861   48.9224 N   0  0  0  0  0  0  0  0  0  0  0  0
  -26.4674   95.2977   55.8910 O   0  0  0  0  0  0  0  0  0  0  0  0
  -25.4125   97.5172   48.9114 C   0  0  0  0  0  0  0  0  0  0  0  0
  -21.6975   96.2128   48.4759 N   0  0  0  0  0  0  0  0  0  0  0  0
  -24.8013   96.9844   50.0202 C   0  0  0  0  0  0  0  0  0  0  0  0
  -24.7529   97.5555   47.8474 O   0  0  0  0  0  0  0  0  0  0  0  0
  -23.5560   96.4436   50.2724 C   0  0  0  0  0  0  0  0  0  0  0  0
  -23.4893   96.0634   51.5779 C   0  0  0  0  0  0  0  0  0  0  0  0
  -22.5245   96.3259   49.2706 C   0  0  0  0  0  0  0  0  0  0  0  0
  -25.3251   94.7119   53.8906 C   0  0  2  0  0  0  0  0  0  0  0  0
  -25.2636   94.8043   55.4035 C   0  0  1  0  0  0  0  0  0  0  0  0
  -24.2213   95.8809   55.5861 C   0  0  1  0  0  0  0  0  0  0  0  0
  -22.8626   95.2076   55.8193 C   0  0  0  0  0  0  0  0  0  0  0  0
  -22.1507   95.1008   54.6383 O   0  0  0  0  0  0  0  0  0  0  0  0
  1  2  1  6
  1  3  1  0
 17  1  1  0
  2  4  1  0
  2 15  1  0
  3 19  1  0
  4  5  1  0
  4 12  2  0
  5  7  2  0
 17  6  1  1
  7  8  1  0
 10  8  1  0
 18  9  1  6
 12 10  1  0
 10 13  2  0
 16 11  3  0
 14 12  1  0
 15 14  2  0
 14 16  1  0
 17 18  1  0
 18 19  1  0
 19 20  1  6
 20 21  1  0
M  END
$$$$
