
     RDKit          3D

 21 23  0  0  0  0  0  0  0  0999 V2000
  -25.6520   95.6957   53.8480 C   0  0  2  0  0  0  0  0  0  0  0  0
  -25.5502   96.1583   52.4855 N   0  0  0  0  0  0  0  0  0  0  0  0
  -25.7514   96.7484   54.7510 O   0  0  0  0  0  0  0  0  0  0  0  0
  -26.3695   95.7627   51.4995 C   0  0  0  0  0  0  0  0  0  0  0  0
  -27.4322   94.9261   51.3848 N   0  0  0  0  0  0  0  0  0  0  0  0
  -24.5844   93.5424   53.8693 O   0  0  0  0  0  0  0  0  0  0  0  0
  -28.0908   94.7022   50.2510 C   0  0  0  0  0  0  0  0  0  0  0  0
  -27.7410   95.3091   49.0941 N   0  0  0  0  0  0  0  0  0  0  0  0
  -25.7167   94.0677   56.2063 O   0  0  0  0  0  0  0  0  0  0  0  0
  -26.7051   96.1391   49.1555 C   0  0  0  0  0  0  0  0  0  0  0  0
  -23.6973   98.6725   48.9111 N   0  0  0  0  0  0  0  0  0  0  0  0
  -26.0091   96.3868   50.3136 C   0  0  0  0  0  0  0  0  0  0  0  0
  -26.3328   96.7317   48.1168 O   0  0  0  0  0  0  0  0  0  0  0  0
  -24.9277   97.1804   50.6415 C   0  0  0  0  0  0  0  0  0  0  0  0
  -24.6527   97.0366   51.9670 C   0  0  0  0  0  0  0  0  0  0  0  0
  -24.2364   98.0129   49.6874 C   0  0  0  0  0  0  0  0  0  0  0  0
  -24.5108   94.8597   54.3175 C   0  0  2  0  0  0  0  0  0  0  0  0
  -24.7124   94.9458   55.8185 C   0  0  1  0  0  0  0  0  0  0  0  0
  -25.2528   96.3484   55.9585 C   0  0  1  0  0  0  0  0  0  0  0  0
  -24.0895   97.2847   56.3103 C   0  0  0  0  0  0  0  0  0  0  0  0
  -23.5449   97.8514   55.1722 O   0  0  0  0  0  0  0  0  0  0  0  0
  1  2  1  6
  1  3  1  0
 17  1  1  0
  2  4  1  0
  2 15  1  0
  3 19  1  0
  4  5  1  0
  4 12  2  0
  5  7  2  0
 17  6  1  6
  7  8  1  0
 10  8  1  0
 18  9  1  6
 12 10  1  0
 10 13  2  0
 16 11  3  0
 14 12  1  0
 15 14  2  0
 14 16  1  0
 17 18  1  0
 18 19  1  0
 19 20  1  6
 20 21  1  0
M  END
$$$$
