
     RDKit          3D

 21 23  0  0  0  0  0  0  0  0999 V2000
  -25.6141   96.0843   53.5284 C   0  0  2  0  0  0  0  0  0  0  0  0
  -25.3310   96.4693   52.1674 N   0  0  0  0  0  0  0  0  0  0  0  0
  -25.1249   97.0084   54.4452 O   0  0  0  0  0  0  0  0  0  0  0  0
  -26.2020   96.3323   51.1561 C   0  0  0  0  0  0  0  0  0  0  0  0
  -27.4685   95.8665   51.0100 N   0  0  0  0  0  0  0  0  0  0  0  0
  -25.8164   93.6898   53.4824 O   0  0  0  0  0  0  0  0  0  0  0  0
  -28.1288   95.8400   49.8555 C   0  0  0  0  0  0  0  0  0  0  0  0
  -27.5715   96.2883   48.7076 N   0  0  0  0  0  0  0  0  0  0  0  0
  -26.4374   94.6528   55.8713 O   0  0  0  0  0  0  0  0  0  0  0  0
  -26.3308   96.7551   48.7996 C   0  0  0  0  0  0  0  0  0  0  0  0
  -22.6505   98.2066   48.6614 N   0  0  0  0  0  0  0  0  0  0  0  0
  -25.6284   96.7930   49.9795 C   0  0  0  0  0  0  0  0  0  0  0  0
  -25.7603   97.1848   47.7707 O   0  0  0  0  0  0  0  0  0  0  0  0
  -24.3641   97.2156   50.3396 C   0  0  0  0  0  0  0  0  0  0  0  0
  -24.1888   97.0154   51.6747 C   0  0  0  0  0  0  0  0  0  0  0  0
  -23.4184   97.7751   49.4048 C   0  0  0  0  0  0  0  0  0  0  0  0
  -25.0567   94.7646   53.9399 C   0  0  2  0  0  0  0  0  0  0  0  0
  -25.1364   94.8964   55.4490 C   0  0  1  0  0  0  0  0  0  0  0  0
  -24.8672   96.3711   55.6260 C   0  0  1  0  0  0  0  0  0  0  0  0
  -23.3767   96.5595   55.9362 C   0  0  0  0  0  0  0  0  0  0  0  0
  -22.6233   96.5630   54.7762 O   0  0  0  0  0  0  0  0  0  0  0  0
  1  2  1  6
  1  3  1  0
 17  1  1  0
  2  4  1  0
  2 15  1  0
  3 19  1  0
  4  5  1  0
  4 12  2  0
  5  7  2  0
 17  6  1  6
  7  8  1  0
 10  8  1  0
 18  9  1  6
 12 10  1  0
 10 13  2  0
 16 11  3  0
 14 12  1  0
 15 14  2  0
 14 16  1  0
 17 18  1  0
 18 19  1  0
 19 20  1  6
 20 21  1  0
M  END
$$$$
