
     RDKit          3D

 21 23  0  0  0  0  0  0  0  0999 V2000
  -25.5825   95.8759   53.6984 C   0  0  2  0  0  0  0  0  0  0  0  0
  -25.1648   95.8803   52.3177 N   0  0  0  0  0  0  0  0  0  0  0  0
  -24.9001   96.8234   54.4535 O   0  0  0  0  0  0  0  0  0  0  0  0
  -25.4820   96.8484   51.4447 C   0  0  0  0  0  0  0  0  0  0  0  0
  -26.1895   98.0063   51.4798 N   0  0  0  0  0  0  0  0  0  0  0  0
  -26.3987   93.6527   54.1083 O   0  0  0  0  0  0  0  0  0  0  0  0
  -26.3584   98.8133   50.4359 C   0  0  0  0  0  0  0  0  0  0  0  0
  -25.8224   98.5324   49.2264 N   0  0  0  0  0  0  0  0  0  0  0  0
  -26.8256   95.2249   56.1978 O   0  0  0  0  0  0  0  0  0  0  0  0
  -25.1195   97.4079   49.1416 C   0  0  0  0  0  0  0  0  0  0  0  0
  -22.9448   94.1723   48.4888 N   0  0  0  0  0  0  0  0  0  0  0  0
  -24.9309   96.5585   50.2046 C   0  0  0  0  0  0  0  0  0  0  0  0
  -24.5978   97.0928   48.0474 O   0  0  0  0  0  0  0  0  0  0  0  0
  -24.2637   95.3624   50.3806 C   0  0  0  0  0  0  0  0  0  0  0  0
  -24.4103   94.9539   51.6709 C   0  0  0  0  0  0  0  0  0  0  0  0
  -23.5398   94.6951   49.3261 C   0  0  0  0  0  0  0  0  0  0  0  0
  -25.4011   94.5781   54.4085 C   0  0  2  0  0  0  0  0  0  0  0  0
  -25.4930   95.0435   55.8494 C   0  0  1  0  0  0  0  0  0  0  0  0
  -24.8557   96.4086   55.7545 C   0  0  1  0  0  0  0  0  0  0  0  0
  -23.3783   96.2838   56.1487 C   0  0  0  0  0  0  0  0  0  0  0  0
  -22.5834   96.0652   55.0382 O   0  0  0  0  0  0  0  0  0  0  0  0
  1  2  1  6
  1  3  1  0
 17  1  1  0
  2  4  1  0
  2 15  1  0
  3 19  1  0
  4  5  1  0
  4 12  2  0
  5  7  2  0
 17  6  1  6
  7  8  1  0
 10  8  1  0
 18  9  1  6
 12 10  1  0
 10 13  2  0
 16 11  3  0
 14 12  1  0
 15 14  2  0
 14 16  1  0
 17 18  1  0
 18 19  1  0
 19 20  1  6
 20 21  1  0
M  END
$$$$
