
     RDKit          3D

 21 23  0  0  0  0  0  0  0  0999 V2000
  -25.6766   95.9918   53.4799 C   0  0  2  0  0  0  0  0  0  0  0  0
  -25.3152   96.2988   52.1176 N   0  0  0  0  0  0  0  0  0  0  0  0
  -25.0861   96.8653   54.3864 O   0  0  0  0  0  0  0  0  0  0  0  0
  -26.1504   96.1674   51.0758 C   0  0  0  0  0  0  0  0  0  0  0  0
  -27.4354   95.7697   50.8941 N   0  0  0  0  0  0  0  0  0  0  0  0
  -26.2007   93.6461   53.4850 O   0  0  0  0  0  0  0  0  0  0  0  0
  -28.0479   95.7300   49.7140 C   0  0  0  0  0  0  0  0  0  0  0  0
  -27.4181   96.0937   48.5738 N   0  0  0  0  0  0  0  0  0  0  0  0
  -26.7358   94.7472   55.8347 O   0  0  0  0  0  0  0  0  0  0  0  0
  -26.1565   96.4917   48.7002 C   0  0  0  0  0  0  0  0  0  0  0  0
  -22.4192   97.7411   48.6444 N   0  0  0  0  0  0  0  0  0  0  0  0
  -25.5024   96.5414   49.9071 C   0  0  0  0  0  0  0  0  0  0  0  0
  -25.5195   96.8414   47.6801 O   0  0  0  0  0  0  0  0  0  0  0  0
  -24.2310   96.9057   50.3041 C   0  0  0  0  0  0  0  0  0  0  0  0
  -24.1231   96.7554   51.6528 C   0  0  0  0  0  0  0  0  0  0  0  0
  -23.2159   97.3675   49.3889 C   0  0  0  0  0  0  0  0  0  0  0  0
  -25.3121   94.6203   53.9357 C   0  0  2  0  0  0  0  0  0  0  0  0
  -25.4052   94.8016   55.4389 C   0  0  1  0  0  0  0  0  0  0  0  0
  -24.9423   96.2307   55.5878 C   0  0  1  0  0  0  0  0  0  0  0  0
  -23.4468   96.2242   55.9300 C   0  0  0  0  0  0  0  0  0  0  0  0
  -22.6740   96.1797   54.7838 O   0  0  0  0  0  0  0  0  0  0  0  0
  1  2  1  6
  1  3  1  0
 17  1  1  0
  2  4  1  0
  2 15  1  0
  3 19  1  0
  4  5  1  0
  4 12  2  0
  5  7  2  0
 17  6  1  6
  7  8  1  0
 10  8  1  0
 18  9  1  6
 12 10  1  0
 10 13  2  0
 16 11  3  0
 14 12  1  0
 15 14  2  0
 14 16  1  0
 17 18  1  0
 18 19  1  0
 19 20  1  6
 20 21  1  0
M  END
$$$$
