
     RDKit          3D

 21 23  0  0  0  0  0  0  0  0999 V2000
  -51.8455   76.9206   63.5139 C   0  0  2  0  0  0  0  0  0  0  0  0
  -52.0291   77.2617   62.1244 N   0  0  0  0  0  0  0  0  0  0  0  0
  -52.7104   75.9115   63.9227 O   0  0  0  0  0  0  0  0  0  0  0  0
  -51.0342   77.6534   61.3139 C   0  0  0  0  0  0  0  0  0  0  0  0
  -49.6971   77.8556   61.4308 N   0  0  0  0  0  0  0  0  0  0  0  0
  -50.9477   78.8996   64.5406 O   0  0  0  0  0  0  0  0  0  0  0  0
  -48.9107   78.2608   60.4374 C   0  0  0  0  0  0  0  0  0  0  0  0
  -49.3986   78.5087   59.2006 N   0  0  0  0  0  0  0  0  0  0  0  0
  -50.9870   76.8742   66.2483 O   0  0  0  0  0  0  0  0  0  0  0  0
  -50.7043   78.3245   59.0359 C   0  0  0  0  0  0  0  0  0  0  0  0
  -54.5458   77.8863   58.1549 N   0  0  0  0  0  0  0  0  0  0  0  0
  -51.5368   77.9070   60.0455 C   0  0  0  0  0  0  0  0  0  0  0  0
  -51.2160   78.5376   57.9127 O   0  0  0  0  0  0  0  0  0  0  0  0
  -52.8895   77.6450   60.1381 C   0  0  0  0  0  0  0  0  0  0  0  0
  -53.1834   77.2523   61.4080 C   0  0  0  0  0  0  0  0  0  0  0  0
  -53.8018   77.7822   59.0289 C   0  0  0  0  0  0  0  0  0  0  0  0
  -52.0461   78.0450   64.4715 C   0  0  2  0  0  0  0  0  0  0  0  0
  -52.2271   77.2706   65.7632 C   0  0  1  0  0  0  0  0  0  0  0  0
  -52.9382   76.0361   65.2641 C   0  0  1  0  0  0  0  0  0  0  0  0
  -54.4472   76.2318   65.4595 C   0  0  0  0  0  0  0  0  0  0  0  0
  -55.0897   76.3936   64.2454 O   0  0  0  0  0  0  0  0  0  0  0  0
  1  2  1  6
  1  3  1  0
 17  1  1  0
  2  4  1  0
  2 15  1  0
  3 19  1  0
  4  5  1  0
  4 12  2  0
  5  7  2  0
 17  6  1  1
  7  8  1  0
 10  8  1  0
 18  9  1  6
 12 10  1  0
 10 13  2  0
 16 11  3  0
 14 12  1  0
 15 14  2  0
 14 16  1  0
 17 18  1  0
 18 19  1  0
 19 20  1  6
 20 21  1  0
M  END
$$$$
