
     RDKit          3D

 21 23  0  0  0  0  0  0  0  0999 V2000
  -25.4166   96.0603   53.2528 C   0  0  2  0  0  0  0  0  0  0  0  0
  -25.0375   96.5341   51.9442 N   0  0  0  0  0  0  0  0  0  0  0  0
  -24.9608   96.8987   54.2642 O   0  0  0  0  0  0  0  0  0  0  0  0
  -25.8605   96.5395   50.8847 C   0  0  0  0  0  0  0  0  0  0  0  0
  -27.1448   96.1750   50.6397 N   0  0  0  0  0  0  0  0  0  0  0  0
  -25.6818   93.6832   53.0156 O   0  0  0  0  0  0  0  0  0  0  0  0
  -27.7432   96.2875   49.4569 C   0  0  0  0  0  0  0  0  0  0  0  0
  -27.0981   96.7882   48.3789 N   0  0  0  0  0  0  0  0  0  0  0  0
  -26.4257   94.4891   55.4275 O   0  0  0  0  0  0  0  0  0  0  0  0
  -25.8365   97.1600   48.5688 C   0  0  0  0  0  0  0  0  0  0  0  0
  -22.0658   98.3685   48.7365 N   0  0  0  0  0  0  0  0  0  0  0  0
  -25.1969   97.0538   49.7798 C   0  0  0  0  0  0  0  0  0  0  0  0
  -25.1857   97.6316   47.6083 O   0  0  0  0  0  0  0  0  0  0  0  0
  -23.9289   97.3583   50.2341 C   0  0  0  0  0  0  0  0  0  0  0  0
  -23.8379   97.0389   51.5544 C   0  0  0  0  0  0  0  0  0  0  0  0
  -22.9008   97.9257   49.3960 C   0  0  0  0  0  0  0  0  0  0  0  0
  -24.9231   94.6967   53.5977 C   0  0  2  0  0  0  0  0  0  0  0  0
  -25.0944   94.7206   55.1047 C   0  0  1  0  0  0  0  0  0  0  0  0
  -24.7961   96.1691   55.4076 C   0  0  1  0  0  0  0  0  0  0  0  0
  -23.3235   96.2860   55.8214 C   0  0  0  0  0  0  0  0  0  0  0  0
  -22.5710   96.8768   54.8224 O   0  0  0  0  0  0  0  0  0  0  0  0
  1  2  1  6
  1  3  1  0
 17  1  1  0
  2  4  1  0
  2 15  1  0
  3 19  1  0
  4  5  1  0
  4 12  2  0
  5  7  2  0
 17  6  1  6
  7  8  1  0
 10  8  1  0
 18  9  1  6
 12 10  1  0
 10 13  2  0
 16 11  3  0
 14 12  1  0
 15 14  2  0
 14 16  1  0
 17 18  1  0
 18 19  1  0
 19 20  1  6
 20 21  1  0
M  END
$$$$
