
     RDKit          3D

 21 23  0  0  0  0  0  0  0  0999 V2000
  -25.9749   96.2142   53.3243 C   0  0  2  0  0  0  0  0  0  0  0  0
  -25.4918   96.6033   52.0220 N   0  0  0  0  0  0  0  0  0  0  0  0
  -25.4006   96.9686   54.3414 O   0  0  0  0  0  0  0  0  0  0  0  0
  -24.2384   96.3867   51.5953 C   0  0  0  0  0  0  0  0  0  0  0  0
  -23.1139   95.8216   52.1039 N   0  0  0  0  0  0  0  0  0  0  0  0
  -26.6471   93.9182   53.0925 O   0  0  0  0  0  0  0  0  0  0  0  0
  -21.9590   95.7311   51.4501 C   0  0  0  0  0  0  0  0  0  0  0  0
  -21.8145   96.2090   50.1932 N   0  0  0  0  0  0  0  0  0  0  0  0
  -27.2882   94.8621   55.4838 O   0  0  0  0  0  0  0  0  0  0  0  0
  -22.8891   96.7721   49.6511 C   0  0  0  0  0  0  0  0  0  0  0  0
  -25.8640   98.4986   47.6904 N   0  0  0  0  0  0  0  0  0  0  0  0
  -24.0923   96.8775   50.3055 C   0  0  0  0  0  0  0  0  0  0  0  0
  -22.8184   97.2336   48.4889 O   0  0  0  0  0  0  0  0  0  0  0  0
  -25.3280   97.4007   49.9799 C   0  0  0  0  0  0  0  0  0  0  0  0
  -26.1768   97.2307   51.0307 C   0  0  0  0  0  0  0  0  0  0  0  0
  -25.6180   98.0187   48.7090 C   0  0  0  0  0  0  0  0  0  0  0  0
  -25.7349   94.7883   53.6863 C   0  0  2  0  0  0  0  0  0  0  0  0
  -25.9305   94.8546   55.1891 C   0  0  1  0  0  0  0  0  0  0  0  0
  -25.3898   96.2311   55.4915 C   0  0  1  0  0  0  0  0  0  0  0  0
  -23.9283   96.0923   55.9369 C   0  0  0  0  0  0  0  0  0  0  0  0
  -23.0617   96.4287   54.9127 O   0  0  0  0  0  0  0  0  0  0  0  0
  1  2  1  6
  1  3  1  0
 17  1  1  0
  2  4  1  0
  2 15  1  0
  3 19  1  0
  4  5  1  0
  4 12  2  0
  5  7  2  0
 17  6  1  6
  7  8  1  0
 10  8  1  0
 18  9  1  6
 12 10  1  0
 10 13  2  0
 16 11  3  0
 14 12  1  0
 15 14  2  0
 14 16  1  0
 17 18  1  0
 18 19  1  0
 19 20  1  6
 20 21  1  0
M  END
$$$$
