
     RDKit          3D

 21 23  0  0  0  0  0  0  0  0999 V2000
  -25.8491   96.1258   53.6464 C   0  0  2  0  0  0  0  0  0  0  0  0
  -25.3884   96.3950   52.3062 N   0  0  0  0  0  0  0  0  0  0  0  0
  -25.3885   97.0707   54.5566 O   0  0  0  0  0  0  0  0  0  0  0  0
  -24.2714   95.8693   51.7809 C   0  0  0  0  0  0  0  0  0  0  0  0
  -23.2930   95.0276   52.2011 N   0  0  0  0  0  0  0  0  0  0  0  0
  -26.2414   93.7557   53.7194 O   0  0  0  0  0  0  0  0  0  0  0  0
  -22.2566   94.6519   51.4565 C   0  0  0  0  0  0  0  0  0  0  0  0
  -22.0956   95.0933   50.1883 N   0  0  0  0  0  0  0  0  0  0  0  0
  -27.0382   94.9229   55.9605 O   0  0  0  0  0  0  0  0  0  0  0  0
  -23.0293   95.9207   49.7307 C   0  0  0  0  0  0  0  0  0  0  0  0
  -25.5866   98.3720   47.9963 N   0  0  0  0  0  0  0  0  0  0  0  0
  -24.1082   96.3231   50.4797 C   0  0  0  0  0  0  0  0  0  0  0  0
  -22.9359   96.3639   48.5630 O   0  0  0  0  0  0  0  0  0  0  0  0
  -25.1899   97.1505   50.2513 C   0  0  0  0  0  0  0  0  0  0  0  0
  -25.9665   97.1904   51.3687 C   0  0  0  0  0  0  0  0  0  0  0  0
  -25.4125   97.8390   49.0032 C   0  0  0  0  0  0  0  0  0  0  0  0
  -25.4504   94.7990   54.1962 C   0  0  2  0  0  0  0  0  0  0  0  0
  -25.6833   95.0388   55.6758 C   0  0  1  0  0  0  0  0  0  0  0  0
  -25.3147   96.4978   55.7948 C   0  0  1  0  0  0  0  0  0  0  0  0
  -23.8564   96.5944   56.2615 C   0  0  0  0  0  0  0  0  0  0  0  0
  -23.0080   95.9483   55.3807 O   0  0  0  0  0  0  0  0  0  0  0  0
  1  2  1  6
  1  3  1  0
 17  1  1  0
  2  4  1  0
  2 15  1  0
  3 19  1  0
  4  5  1  0
  4 12  2  0
  5  7  2  0
 17  6  1  6
  7  8  1  0
 10  8  1  0
 18  9  1  6
 12 10  1  0
 10 13  2  0
 16 11  3  0
 14 12  1  0
 15 14  2  0
 14 16  1  0
 17 18  1  0
 18 19  1  0
 19 20  1  6
 20 21  1  0
M  END
$$$$
