
     RDKit          3D

 21 23  0  0  0  0  0  0  0  0999 V2000
  -25.7513   95.9959   53.6435 C   0  0  2  0  0  0  0  0  0  0  0  0
  -25.4979   96.3399   52.2658 N   0  0  0  0  0  0  0  0  0  0  0  0
  -25.3217   96.9886   54.5173 O   0  0  0  0  0  0  0  0  0  0  0  0
  -26.3432   96.0668   51.2604 C   0  0  0  0  0  0  0  0  0  0  0  0
  -27.5558   95.4699   51.1344 N   0  0  0  0  0  0  0  0  0  0  0  0
  -25.7951   93.5934   53.7008 O   0  0  0  0  0  0  0  0  0  0  0  0
  -28.2014   95.3208   49.9809 C   0  0  0  0  0  0  0  0  0  0  0  0
  -27.6831   95.7655   48.8136 N   0  0  0  0  0  0  0  0  0  0  0  0
  -26.4720   94.6151   56.0499 O   0  0  0  0  0  0  0  0  0  0  0  0
  -26.4959   96.3582   48.8854 C   0  0  0  0  0  0  0  0  0  0  0  0
  -22.9773   98.1637   48.6862 N   0  0  0  0  0  0  0  0  0  0  0  0
  -25.8097   96.5242   50.0638 C   0  0  0  0  0  0  0  0  0  0  0  0
  -25.9635   96.7917   47.8379 O   0  0  0  0  0  0  0  0  0  0  0  0
  -24.5966   97.0884   50.4056 C   0  0  0  0  0  0  0  0  0  0  0  0
  -24.4122   96.9727   51.7495 C   0  0  0  0  0  0  0  0  0  0  0  0
  -23.7046   97.6932   49.4466 C   0  0  0  0  0  0  0  0  0  0  0  0
  -25.1068   94.7346   54.1078 C   0  0  2  0  0  0  0  0  0  0  0  0
  -25.1911   94.9255   55.6104 C   0  0  1  0  0  0  0  0  0  0  0  0
  -25.0194   96.4210   55.7228 C   0  0  1  0  0  0  0  0  0  0  0  0
  -23.5437   96.7203   56.0165 C   0  0  0  0  0  0  0  0  0  0  0  0
  -22.8919   97.1711   54.8829 O   0  0  0  0  0  0  0  0  0  0  0  0
  1  2  1  6
  1  3  1  0
 17  1  1  0
  2  4  1  0
  2 15  1  0
  3 19  1  0
  4  5  1  0
  4 12  2  0
  5  7  2  0
 17  6  1  1
  7  8  1  0
 10  8  1  0
 18  9  1  6
 12 10  1  0
 10 13  2  0
 16 11  3  0
 14 12  1  0
 15 14  2  0
 14 16  1  0
 17 18  1  0
 18 19  1  0
 19 20  1  6
 20 21  1  0
M  END
$$$$
