
     RDKit          3D

 21 23  0  0  0  0  0  0  0  0999 V2000
  -25.7943   96.1058   53.5687 C   0  0  2  0  0  0  0  0  0  0  0  0
  -25.3835   96.5038   52.2445 N   0  0  0  0  0  0  0  0  0  0  0  0
  -25.3433   96.9893   54.5432 O   0  0  0  0  0  0  0  0  0  0  0  0
  -26.1806   96.4473   51.1668 C   0  0  0  0  0  0  0  0  0  0  0  0
  -27.4587   96.0678   50.9122 N   0  0  0  0  0  0  0  0  0  0  0  0
  -26.0947   93.7240   53.4516 O   0  0  0  0  0  0  0  0  0  0  0  0
  -28.0282   96.1114   49.7108 C   0  0  0  0  0  0  0  0  0  0  0  0
  -27.3571   96.5497   48.6216 N   0  0  0  0  0  0  0  0  0  0  0  0
  -26.8690   94.6677   55.8032 O   0  0  0  0  0  0  0  0  0  0  0  0
  -26.1004   96.9333   48.8203 C   0  0  0  0  0  0  0  0  0  0  0  0
  -22.3486   98.1807   49.0082 N   0  0  0  0  0  0  0  0  0  0  0  0
  -25.4902   96.8977   50.0505 C   0  0  0  0  0  0  0  0  0  0  0  0
  -25.4264   97.3494   47.8501 O   0  0  0  0  0  0  0  0  0  0  0  0
  -24.2335   97.2292   50.5170 C   0  0  0  0  0  0  0  0  0  0  0  0
  -24.1746   96.9866   51.8553 C   0  0  0  0  0  0  0  0  0  0  0  0
  -23.1853   97.7485   49.6726 C   0  0  0  0  0  0  0  0  0  0  0  0
  -25.3300   94.7548   53.9941 C   0  0  2  0  0  0  0  0  0  0  0  0
  -25.5284   94.8610   55.4942 C   0  0  1  0  0  0  0  0  0  0  0  0
  -25.2117   96.3186   55.7262 C   0  0  1  0  0  0  0  0  0  0  0  0
  -23.7451   96.4342   56.1614 C   0  0  0  0  0  0  0  0  0  0  0  0
  -22.9322   96.7592   55.0906 O   0  0  0  0  0  0  0  0  0  0  0  0
  1  2  1  6
  1  3  1  0
 17  1  1  0
  2  4  1  0
  2 15  1  0
  3 19  1  0
  4  5  1  0
  4 12  2  0
  5  7  2  0
 17  6  1  6
  7  8  1  0
 10  8  1  0
 18  9  1  6
 12 10  1  0
 10 13  2  0
 16 11  3  0
 14 12  1  0
 15 14  2  0
 14 16  1  0
 17 18  1  0
 18 19  1  0
 19 20  1  6
 20 21  1  0
M  END
$$$$
