
     RDKit          3D

 21 23  0  0  0  0  0  0  0  0999 V2000
  -25.8067   95.8022   53.7977 C   0  0  2  0  0  0  0  0  0  0  0  0
  -25.5351   96.1870   52.4343 N   0  0  0  0  0  0  0  0  0  0  0  0
  -25.4256   96.7856   54.7039 O   0  0  0  0  0  0  0  0  0  0  0  0
  -26.3882   95.9878   51.4182 C   0  0  0  0  0  0  0  0  0  0  0  0
  -27.6242   95.4475   51.2680 N   0  0  0  0  0  0  0  0  0  0  0  0
  -25.7792   93.3988   53.7970 O   0  0  0  0  0  0  0  0  0  0  0  0
  -28.2722   95.3692   50.1089 C   0  0  0  0  0  0  0  0  0  0  0  0
  -27.7323   95.8356   48.9600 N   0  0  0  0  0  0  0  0  0  0  0  0
  -26.5355   94.3424   56.1544 O   0  0  0  0  0  0  0  0  0  0  0  0
  -26.5215   96.3749   49.0557 C   0  0  0  0  0  0  0  0  0  0  0  0
  -22.9301   98.0521   48.9390 N   0  0  0  0  0  0  0  0  0  0  0  0
  -25.8325   96.4673   50.2404 C   0  0  0  0  0  0  0  0  0  0  0  0
  -25.9683   96.8249   48.0261 O   0  0  0  0  0  0  0  0  0  0  0  0
  -24.5978   96.9668   50.6051 C   0  0  0  0  0  0  0  0  0  0  0  0
  -24.4224   96.7928   51.9438 C   0  0  0  0  0  0  0  0  0  0  0  0
  -23.6784   97.5694   49.6708 C   0  0  0  0  0  0  0  0  0  0  0  0
  -25.1343   94.5497   54.2458 C   0  0  2  0  0  0  0  0  0  0  0  0
  -25.2557   94.7013   55.7502 C   0  0  1  0  0  0  0  0  0  0  0  0
  -25.1316   96.1981   55.9018 C   0  0  1  0  0  0  0  0  0  0  0  0
  -23.6721   96.5337   56.2344 C   0  0  0  0  0  0  0  0  0  0  0  0
  -22.8270   96.1513   55.2083 O   0  0  0  0  0  0  0  0  0  0  0  0
  1  2  1  6
  1  3  1  0
 17  1  1  0
  2  4  1  0
  2 15  1  0
  3 19  1  0
  4  5  1  0
  4 12  2  0
  5  7  2  0
 17  6  1  6
  7  8  1  0
 10  8  1  0
 18  9  1  6
 12 10  1  0
 10 13  2  0
 16 11  3  0
 14 12  1  0
 15 14  2  0
 14 16  1  0
 17 18  1  0
 18 19  1  0
 19 20  1  6
 20 21  1  0
M  END
$$$$
