
     RDKit          3D

 21 23  0  0  0  0  0  0  0  0999 V2000
  -25.4483   95.9427   53.2271 C   0  0  2  0  0  0  0  0  0  0  0  0
  -24.9889   96.4413   51.9538 N   0  0  0  0  0  0  0  0  0  0  0  0
  -25.0345   96.7472   54.2831 O   0  0  0  0  0  0  0  0  0  0  0  0
  -25.7591   96.5113   50.8575 C   0  0  0  0  0  0  0  0  0  0  0  0
  -27.0428   96.2048   50.5406 N   0  0  0  0  0  0  0  0  0  0  0  0
  -25.7419   93.5777   52.9148 O   0  0  0  0  0  0  0  0  0  0  0  0
  -27.5788   96.3767   49.3353 C   0  0  0  0  0  0  0  0  0  0  0  0
  -26.8641   96.8847   48.3056 N   0  0  0  0  0  0  0  0  0  0  0  0
  -26.6039   94.3380   55.3021 O   0  0  0  0  0  0  0  0  0  0  0  0
  -25.6001   97.2010   48.5667 C   0  0  0  0  0  0  0  0  0  0  0  0
  -21.7997   98.2536   48.9485 N   0  0  0  0  0  0  0  0  0  0  0  0
  -25.0241   97.0329   49.8024 C   0  0  0  0  0  0  0  0  0  0  0  0
  -24.8865   97.6761   47.6536 O   0  0  0  0  0  0  0  0  0  0  0  0
  -23.7690   97.2736   50.3254 C   0  0  0  0  0  0  0  0  0  0  0  0
  -23.7539   96.9106   51.6374 C   0  0  0  0  0  0  0  0  0  0  0  0
  -22.6811   97.8259   49.5555 C   0  0  0  0  0  0  0  0  0  0  0  0
  -24.9988   94.5620   53.5635 C   0  0  2  0  0  0  0  0  0  0  0  0
  -25.2528   94.5520   55.0590 C   0  0  1  0  0  0  0  0  0  0  0  0
  -24.9463   95.9867   55.4148 C   0  0  1  0  0  0  0  0  0  0  0  0
  -23.4970   96.0653   55.9116 C   0  0  0  0  0  0  0  0  0  0  0  0
  -22.6440   96.4628   54.8980 O   0  0  0  0  0  0  0  0  0  0  0  0
  1  2  1  6
  1  3  1  0
 17  1  1  0
  2  4  1  0
  2 15  1  0
  3 19  1  0
  4  5  1  0
  4 12  2  0
  5  7  2  0
 17  6  1  6
  7  8  1  0
 10  8  1  0
 18  9  1  6
 12 10  1  0
 10 13  2  0
 16 11  3  0
 14 12  1  0
 15 14  2  0
 14 16  1  0
 17 18  1  0
 18 19  1  0
 19 20  1  6
 20 21  1  0
M  END
$$$$
