
     RDKit          3D

 21 23  0  0  0  0  0  0  0  0999 V2000
  -25.3949   95.9049   53.3978 C   0  0  2  0  0  0  0  0  0  0  0  0
  -24.9998   96.4814   52.1359 N   0  0  0  0  0  0  0  0  0  0  0  0
  -25.1754   96.7741   54.4607 O   0  0  0  0  0  0  0  0  0  0  0  0
  -25.7316   96.3968   51.0146 C   0  0  0  0  0  0  0  0  0  0  0  0
  -26.9191   95.8440   50.6589 N   0  0  0  0  0  0  0  0  0  0  0  0
  -25.2218   93.5272   53.0920 O   0  0  0  0  0  0  0  0  0  0  0  0
  -27.4378   95.9052   49.4354 C   0  0  0  0  0  0  0  0  0  0  0  0
  -26.8024   96.5414   48.4251 N   0  0  0  0  0  0  0  0  0  0  0  0
  -26.2869   94.1101   55.4470 O   0  0  0  0  0  0  0  0  0  0  0  0
  -25.6343   97.0999   48.7244 C   0  0  0  0  0  0  0  0  0  0  0  0
  -22.1538   98.9054   49.2147 N   0  0  0  0  0  0  0  0  0  0  0  0
  -25.0781   97.0504   49.9795 C   0  0  0  0  0  0  0  0  0  0  0  0
  -24.9974   97.7039   47.8309 O   0  0  0  0  0  0  0  0  0  0  0  0
  -23.9127   97.5335   50.5409 C   0  0  0  0  0  0  0  0  0  0  0  0
  -23.8707   97.1831   51.8557 C   0  0  0  0  0  0  0  0  0  0  0  0
  -22.9290   98.2868   49.8020 C   0  0  0  0  0  0  0  0  0  0  0  0
  -24.7008   94.6356   53.7566 C   0  0  2  0  0  0  0  0  0  0  0  0
  -24.9947   94.5781   55.2437 C   0  0  1  0  0  0  0  0  0  0  0  0
  -24.9789   96.0451   55.5994 C   0  0  1  0  0  0  0  0  0  0  0  0
  -23.5875   96.3993   56.1396 C   0  0  0  0  0  0  0  0  0  0  0  0
  -22.8933   97.1934   55.2448 O   0  0  0  0  0  0  0  0  0  0  0  0
  1  2  1  6
  1  3  1  0
 17  1  1  0
  2  4  1  0
  2 15  1  0
  3 19  1  0
  4  5  1  0
  4 12  2  0
  5  7  2  0
 17  6  1  6
  7  8  1  0
 10  8  1  0
 18  9  1  6
 12 10  1  0
 10 13  2  0
 16 11  3  0
 14 12  1  0
 15 14  2  0
 14 16  1  0
 17 18  1  0
 18 19  1  0
 19 20  1  6
 20 21  1  0
M  END
$$$$
