
     RDKit          3D

 21 23  0  0  0  0  0  0  0  0999 V2000
  -25.5535   95.9331   53.5516 C   0  0  2  0  0  0  0  0  0  0  0  0
  -25.2609   96.4396   52.2331 N   0  0  0  0  0  0  0  0  0  0  0  0
  -25.3811   96.9024   54.5336 O   0  0  0  0  0  0  0  0  0  0  0  0
  -26.0815   96.3005   51.1808 C   0  0  0  0  0  0  0  0  0  0  0  0
  -27.2950   95.7370   50.9522 N   0  0  0  0  0  0  0  0  0  0  0  0
  -25.1630   93.5650   53.4236 O   0  0  0  0  0  0  0  0  0  0  0  0
  -27.9110   95.7366   49.7731 C   0  0  0  0  0  0  0  0  0  0  0  0
  -27.3585   96.3146   48.6824 N   0  0  0  0  0  0  0  0  0  0  0  0
  -26.1949   94.2352   55.7702 O   0  0  0  0  0  0  0  0  0  0  0  0
  -26.1689   96.8809   48.8560 C   0  0  0  0  0  0  0  0  0  0  0  0
  -22.6318   98.6583   48.9686 N   0  0  0  0  0  0  0  0  0  0  0  0
  -25.5129   96.8943   50.0628 C   0  0  0  0  0  0  0  0  0  0  0  0
  -25.6055   97.4328   47.8831 O   0  0  0  0  0  0  0  0  0  0  0  0
  -24.3048   97.3992   50.5016 C   0  0  0  0  0  0  0  0  0  0  0  0
  -24.1570   97.1185   51.8256 C   0  0  0  0  0  0  0  0  0  0  0  0
  -23.3829   98.1063   49.6465 C   0  0  0  0  0  0  0  0  0  0  0  0
  -24.7279   94.7674   53.9773 C   0  0  2  0  0  0  0  0  0  0  0  0
  -24.9618   94.8036   55.4757 C   0  0  1  0  0  0  0  0  0  0  0  0
  -25.0748   96.2897   55.7158 C   0  0  1  0  0  0  0  0  0  0  0  0
  -23.7057   96.8148   56.1665 C   0  0  0  0  0  0  0  0  0  0  0  0
  -23.0792   97.5100   55.1480 O   0  0  0  0  0  0  0  0  0  0  0  0
  1  2  1  6
  1  3  1  0
 17  1  1  0
  2  4  1  0
  2 15  1  0
  3 19  1  0
  4  5  1  0
  4 12  2  0
  5  7  2  0
 17  6  1  6
  7  8  1  0
 10  8  1  0
 18  9  1  6
 12 10  1  0
 10 13  2  0
 16 11  3  0
 14 12  1  0
 15 14  2  0
 14 16  1  0
 17 18  1  0
 18 19  1  0
 19 20  1  6
 20 21  1  0
M  END
$$$$
