
     RDKit          3D

 21 23  0  0  0  0  0  0  0  0999 V2000
  -25.6024   96.0851   53.6016 C   0  0  2  0  0  0  0  0  0  0  0  0
  -25.3653   96.4883   52.2370 N   0  0  0  0  0  0  0  0  0  0  0  0
  -25.2317   97.0711   54.5094 O   0  0  0  0  0  0  0  0  0  0  0  0
  -26.2514   96.3195   51.2439 C   0  0  0  0  0  0  0  0  0  0  0  0
  -27.5002   95.8016   51.1224 N   0  0  0  0  0  0  0  0  0  0  0  0
  -25.5108   93.6835   53.5796 O   0  0  0  0  0  0  0  0  0  0  0  0
  -28.1836   95.7529   49.9821 C   0  0  0  0  0  0  0  0  0  0  0  0
  -27.6706   96.2298   48.8251 N   0  0  0  0  0  0  0  0  0  0  0  0
  -26.2502   94.5872   55.9580 O   0  0  0  0  0  0  0  0  0  0  0  0
  -26.4489   96.7480   48.8931 C   0  0  0  0  0  0  0  0  0  0  0  0
  -22.8581   98.3866   48.6849 N   0  0  0  0  0  0  0  0  0  0  0  0
  -25.7234   96.8097   50.0579 C   0  0  0  0  0  0  0  0  0  0  0  0
  -25.9193   97.2062   47.8547 O   0  0  0  0  0  0  0  0  0  0  0  0
  -24.4703   97.2834   50.3932 C   0  0  0  0  0  0  0  0  0  0  0  0
  -24.2579   97.0843   51.7231 C   0  0  0  0  0  0  0  0  0  0  0  0
  -23.5694   97.8867   49.4416 C   0  0  0  0  0  0  0  0  0  0  0  0
  -24.8890   94.8475   54.0270 C   0  0  2  0  0  0  0  0  0  0  0  0
  -24.9877   94.9836   55.5346 C   0  0  1  0  0  0  0  0  0  0  0  0
  -24.9009   96.4818   55.6969 C   0  0  1  0  0  0  0  0  0  0  0  0
  -23.4452   96.8538   56.0068 C   0  0  0  0  0  0  0  0  0  0  0  0
  -22.6937   96.9313   54.8482 O   0  0  0  0  0  0  0  0  0  0  0  0
  1  2  1  6
  1  3  1  0
 17  1  1  0
  2  4  1  0
  2 15  1  0
  3 19  1  0
  4  5  1  0
  4 12  2  0
  5  7  2  0
 17  6  1  6
  7  8  1  0
 10  8  1  0
 18  9  1  6
 12 10  1  0
 10 13  2  0
 16 11  3  0
 14 12  1  0
 15 14  2  0
 14 16  1  0
 17 18  1  0
 18 19  1  0
 19 20  1  6
 20 21  1  0
M  END
$$$$
