
     RDKit          3D

 23 24  0  0  0  0  0  0  0  0999 V2000
   -6.0412  -34.3336  -15.0358 C   0  0  1  0  0  0  0  0  0  0  0  0
   -5.1268  -34.9654  -14.0092 C   0  0  1  0  0  0  0  0  0  0  0  0
   -3.7119  -35.0418  -14.5872 C   0  0  2  0  0  0  0  0  0  0  0  0
   -3.8522  -35.9173  -15.8412 C   0  0  1  0  0  0  0  0  0  0  0  0
   -4.7218  -35.1283  -16.7852 C   0  0  1  0  0  0  0  0  0  0  0  0
   -5.6980  -36.0495  -17.4883 C   0  0  0  0  0  0  0  0  0  0  0  0
   -6.5002  -33.1645  -14.5365 O   0  0  0  0  0  0  0  0  0  0  0  0
   -5.0161  -34.2001  -12.8384 O   0  0  0  0  0  0  0  0  0  0  0  0
   -2.8569  -35.6094  -13.6746 O   0  0  0  0  0  0  0  0  0  0  0  0
   -2.6068  -36.2195  -16.3803 O   0  0  0  0  0  0  0  0  0  0  0  0
   -5.3203  -34.0426  -16.2137 O   0  0  0  0  0  0  0  0  0  0  0  0
   -5.7129  -35.8192  -18.8630 O   0  0  0  0  0  0  0  0  0  0  0  0
   -8.4110  -32.2261  -13.3976 C   0  0  0  0  0  0  0  0  0  0  0  0
   -7.7906  -32.8006  -14.6414 C   0  0  1  0  0  0  0  0  0  0  0  0
   -8.0271  -31.9329  -15.8239 C   0  0  2  0  0  0  0  0  0  0  0  0
   -8.4058  -32.9793  -16.8909 C   0  0  1  0  0  0  0  0  0  0  0  0
   -9.2555  -33.8706  -16.0007 C   0  0  1  0  0  0  0  0  0  0  0  0
   -9.4519  -35.2453  -16.6316 C   0  0  0  0  0  0  0  0  0  0  0  0
   -8.5049  -30.8618  -13.3903 O   0  0  0  0  0  0  0  0  0  0  0  0
   -8.5016  -34.0052  -14.8776 O   0  0  0  0  0  0  0  0  0  0  0  0
   -6.9460  -31.2310  -16.2686 O   0  0  0  0  0  0  0  0  0  0  0  0
   -9.1204  -32.4198  -17.9221 O   0  0  0  0  0  0  0  0  0  0  0  0
   -8.7427  -36.2066  -15.9530 O   0  0  0  0  0  0  0  0  0  0  0  0
  1  2  1  0
  1  7  1  1
  1 11  1  0
  2  3  1  0
  2  8  1  1
  3  4  1  0
  3  9  1  1
  5  4  1  0
  4 10  1  6
  5  6  1  1
 11  5  1  0
  6 12  1  0
 14  7  1  0
 14 13  1  1
 13 19  1  0
 14 15  1  0
 20 14  1  0
 16 15  1  0
 15 21  1  6
 17 16  1  0
 16 22  1  6
 17 18  1  6
 17 20  1  0
 23 18  1  0
M  END
$$$$
