
     RDKit          3D

 23 24  0  0  0  0  0  0  0  0999 V2000
   -6.7116  -33.0223  -15.0199 C   0  0  1  0  0  0  0  0  0  0  0  0
   -7.0963  -32.3268  -13.7325 C   0  0  1  0  0  0  0  0  0  0  0  0
   -7.9729  -31.1177  -14.0660 C   0  0  2  0  0  0  0  0  0  0  0  0
   -7.0869  -30.2289  -14.9513 C   0  0  1  0  0  0  0  0  0  0  0  0
   -6.8537  -31.0232  -16.2100 C   0  0  1  0  0  0  0  0  0  0  0  0
   -5.4200  -30.8592  -16.6721 C   0  0  0  0  0  0  0  0  0  0  0  0
   -7.2513  -34.2614  -15.0134 O   0  0  0  0  0  0  0  0  0  0  0  0
   -7.8737  -33.1366  -12.8906 O   0  0  0  0  0  0  0  0  0  0  0  0
   -8.3411  -30.4667  -12.9142 O   0  0  0  0  0  0  0  0  0  0  0  0
   -7.6945  -29.0019  -15.1926 O   0  0  0  0  0  0  0  0  0  0  0  0
   -7.2475  -32.3275  -16.1253 O   0  0  0  0  0  0  0  0  0  0  0  0
   -5.2799  -31.1898  -18.0190 O   0  0  0  0  0  0  0  0  0  0  0  0
   -5.4570  -35.6996  -14.2781 C   0  0  0  0  0  0  0  0  0  0  0  0
   -6.5227  -35.3591  -15.2831 C   0  0  1  0  0  0  0  0  0  0  0  0
   -7.3813  -36.5318  -15.5914 C   0  0  2  0  0  0  0  0  0  0  0  0
   -7.4898  -36.4270  -17.1258 C   0  0  1  0  0  0  0  0  0  0  0  0
   -6.0506  -36.0232  -17.3984 C   0  0  1  0  0  0  0  0  0  0  0  0
   -5.9068  -35.4207  -18.7923 C   0  0  0  0  0  0  0  0  0  0  0  0
   -4.7249  -36.8132  -14.5847 O   0  0  0  0  0  0  0  0  0  0  0  0
   -5.8140  -35.0553  -16.4738 O   0  0  0  0  0  0  0  0  0  0  0  0
   -8.6383  -36.4998  -15.0640 O   0  0  0  0  0  0  0  0  0  0  0  0
   -7.8224  -37.6316  -17.6964 O   0  0  0  0  0  0  0  0  0  0  0  0
   -5.5998  -34.0833  -18.7235 O   0  0  0  0  0  0  0  0  0  0  0  0
  1  2  1  0
  1  7  1  1
  1 11  1  0
  2  3  1  0
  2  8  1  1
  3  4  1  0
  3  9  1  1
  5  4  1  0
  4 10  1  6
  5  6  1  1
 11  5  1  0
  6 12  1  0
 14  7  1  0
 14 13  1  1
 13 19  1  0
 14 15  1  0
 20 14  1  0
 16 15  1  0
 15 21  1  1
 17 16  1  0
 16 22  1  6
 17 18  1  6
 17 20  1  0
 23 18  1  0
M  END
$$$$
