
     RDKit          3D

 23 24  0  0  0  0  0  0  0  0999 V2000
   -7.1156  -33.4958  -15.1586 C   0  0  1  0  0  0  0  0  0  0  0  0
   -7.4539  -34.8221  -14.5138 C   0  0  1  0  0  0  0  0  0  0  0  0
   -6.2979  -35.7964  -14.7498 C   0  0  2  0  0  0  0  0  0  0  0  0
   -6.1964  -35.9148  -16.2777 C   0  0  1  0  0  0  0  0  0  0  0  0
   -5.7866  -34.5473  -16.7590 C   0  0  1  0  0  0  0  0  0  0  0  0
   -6.5327  -34.1965  -18.0303 C   0  0  0  0  0  0  0  0  0  0  0  0
   -7.0182  -32.5614  -14.1871 O   0  0  0  0  0  0  0  0  0  0  0  0
   -7.5905  -34.7278  -13.1206 O   0  0  0  0  0  0  0  0  0  0  0  0
   -6.5757  -37.0108  -14.1719 O   0  0  0  0  0  0  0  0  0  0  0  0
   -5.2940  -36.9077  -16.6421 O   0  0  0  0  0  0  0  0  0  0  0  0
   -5.8625  -33.5757  -15.8032 O   0  0  0  0  0  0  0  0  0  0  0  0
   -6.3618  -35.1771  -19.0061 O   0  0  0  0  0  0  0  0  0  0  0  0
   -9.1005  -31.6749  -13.3463 C   0  0  0  0  0  0  0  0  0  0  0  0
   -7.8349  -31.4940  -14.1383 C   0  0  1  0  0  0  0  0  0  0  0  0
   -7.1100  -30.2597  -13.7404 C   0  0  2  0  0  0  0  0  0  0  0  0
   -6.7152  -29.6887  -15.1170 C   0  0  1  0  0  0  0  0  0  0  0  0
   -8.0104  -30.0106  -15.8433 C   0  0  1  0  0  0  0  0  0  0  0  0
   -7.8158  -29.9618  -17.3553 C   0  0  0  0  0  0  0  0  0  0  0  0
   -9.8162  -30.5259  -13.1526 O   0  0  0  0  0  0  0  0  0  0  0  0
   -8.2689  -31.2930  -15.4738 O   0  0  0  0  0  0  0  0  0  0  0  0
   -5.9760  -30.4496  -13.0075 O   0  0  0  0  0  0  0  0  0  0  0  0
   -6.4601  -28.3403  -15.0550 O   0  0  0  0  0  0  0  0  0  0  0  0
   -7.1043  -31.0507  -17.7976 O   0  0  0  0  0  0  0  0  0  0  0  0
  1  2  1  0
  1  7  1  1
  1 11  1  0
  2  3  1  0
  2  8  1  1
  3  4  1  0
  3  9  1  1
  5  4  1  0
  4 10  1  1
  5  6  1  6
 11  5  1  0
  6 12  1  0
 14  7  1  0
 14 13  1  1
 13 19  1  0
 14 15  1  0
 20 14  1  0
 16 15  1  0
 15 21  1  1
 17 16  1  0
 16 22  1  1
 17 18  1  6
 17 20  1  0
 23 18  1  0
M  END
$$$$
