
     RDKit          3D

 23 24  0  0  0  0  0  0  0  0999 V2000
   -6.8307  -33.5293  -15.9907 C   0  0  1  0  0  0  0  0  0  0  0  0
   -7.1988  -33.9850  -17.3857 C   0  0  1  0  0  0  0  0  0  0  0  0
   -7.5340  -35.4775  -17.3465 C   0  0  2  0  0  0  0  0  0  0  0  0
   -6.2470  -36.1510  -16.8479 C   0  0  1  0  0  0  0  0  0  0  0  0
   -6.0573  -35.6573  -15.4371 C   0  0  1  0  0  0  0  0  0  0  0  0
   -4.5919  -35.3737  -15.1764 C   0  0  0  0  0  0  0  0  0  0  0  0
   -7.7473  -32.6244  -15.5815 O   0  0  0  0  0  0  0  0  0  0  0  0
   -8.3507  -33.3515  -17.8762 O   0  0  0  0  0  0  0  0  0  0  0  0
   -7.8758  -35.9200  -18.6008 O   0  0  0  0  0  0  0  0  0  0  0  0
   -6.3461  -37.5356  -16.9260 O   0  0  0  0  0  0  0  0  0  0  0  0
   -6.8767  -34.6201  -15.0963 O   0  0  0  0  0  0  0  0  0  0  0  0
   -4.0898  -36.1884  -14.1629 O   0  0  0  0  0  0  0  0  0  0  0  0
   -7.7076  -30.2107  -15.6149 C   0  0  0  0  0  0  0  0  0  0  0  0
   -7.4012  -31.5074  -14.9174 C   0  0  1  0  0  0  0  0  0  0  0  0
   -7.9092  -31.5131  -13.5213 C   0  0  2  0  0  0  0  0  0  0  0  0
   -6.7132  -32.1328  -12.7711 C   0  0  1  0  0  0  0  0  0  0  0  0
   -5.6102  -31.4153  -13.5309 C   0  0  1  0  0  0  0  0  0  0  0  0
   -4.2676  -32.1113  -13.3320 C   0  0  0  0  0  0  0  0  0  0  0  0
   -6.9891  -29.9999  -16.7592 O   0  0  0  0  0  0  0  0  0  0  0  0
   -5.9858  -31.5463  -14.8308 O   0  0  0  0  0  0  0  0  0  0  0  0
   -9.0105  -32.2846  -13.2954 O   0  0  0  0  0  0  0  0  0  0  0  0
   -6.7315  -31.8173  -11.4343 O   0  0  0  0  0  0  0  0  0  0  0  0
   -3.8935  -32.7963  -14.4627 O   0  0  0  0  0  0  0  0  0  0  0  0
  1  2  1  0
  1  7  1  1
  1 11  1  0
  2  3  1  0
  2  8  1  1
  3  4  1  0
  3  9  1  6
  5  4  1  0
  4 10  1  1
  5  6  1  6
 11  5  1  0
  6 12  1  0
 14  7  1  0
 14 13  1  6
 13 19  1  0
 14 15  1  0
 20 14  1  0
 16 15  1  0
 15 21  1  6
 17 16  1  0
 16 22  1  1
 17 18  1  6
 17 20  1  0
 23 18  1  0
M  END
$$$$
