
     RDKit          3D

 23 24  0  0  0  0  0  0  0  0999 V2000
   -6.6623  -33.8634  -14.3104 C   0  0  1  0  0  0  0  0  0  0  0  0
   -5.9648  -34.5581  -13.1615 C   0  0  1  0  0  0  0  0  0  0  0  0
   -4.5974  -35.0522  -13.6387 C   0  0  2  0  0  0  0  0  0  0  0  0
   -4.9147  -36.0244  -14.7845 C   0  0  1  0  0  0  0  0  0  0  0  0
   -5.5320  -35.1787  -15.8678 C   0  0  1  0  0  0  0  0  0  0  0  0
   -6.6860  -35.9187  -16.5132 C   0  0  0  0  0  0  0  0  0  0  0  0
   -6.8297  -32.5626  -13.9843 O   0  0  0  0  0  0  0  0  0  0  0  0
   -5.7011  -33.6956  -12.0867 O   0  0  0  0  0  0  0  0  0  0  0  0
   -3.9380  -35.6857  -12.6141 O   0  0  0  0  0  0  0  0  0  0  0  0
   -3.7687  -36.6890  -15.2064 O   0  0  0  0  0  0  0  0  0  0  0  0
   -5.8574  -33.9145  -15.4687 O   0  0  0  0  0  0  0  0  0  0  0  0
   -6.2572  -36.6783  -17.6005 O   0  0  0  0  0  0  0  0  0  0  0  0
   -9.0993  -31.9095  -13.4831 C   0  0  0  0  0  0  0  0  0  0  0  0
   -7.9004  -31.8568  -14.3895 C   0  0  1  0  0  0  0  0  0  0  0  0
   -7.5410  -30.4594  -14.7435 C   0  0  2  0  0  0  0  0  0  0  0  0
   -7.2647  -30.5959  -16.2542 C   0  0  1  0  0  0  0  0  0  0  0  0
   -8.4037  -31.5480  -16.5780 C   0  0  1  0  0  0  0  0  0  0  0  0
   -8.1780  -32.2330  -17.9220 C   0  0  0  0  0  0  0  0  0  0  0  0
  -10.0983  -31.0365  -13.8145 O   0  0  0  0  0  0  0  0  0  0  0  0
   -8.3268  -32.4793  -15.5908 O   0  0  0  0  0  0  0  0  0  0  0  0
   -6.4224  -29.9651  -14.1404 O   0  0  0  0  0  0  0  0  0  0  0  0
   -7.3769  -29.3906  -16.9036 O   0  0  0  0  0  0  0  0  0  0  0  0
   -7.5585  -33.4485  -17.7595 O   0  0  0  0  0  0  0  0  0  0  0  0
  1  2  1  0
  1  7  1  1
  1 11  1  0
  2  3  1  0
  2  8  1  1
  3  4  1  0
  3  9  1  1
  5  4  1  0
  4 10  1  6
  5  6  1  1
 11  5  1  0
  6 12  1  0
 14  7  1  0
 14 13  1  1
 13 19  1  0
 14 15  1  0
 20 14  1  0
 16 15  1  0
 15 21  1  1
 17 16  1  0
 16 22  1  6
 17 18  1  6
 17 20  1  0
 23 18  1  0
M  END
$$$$
