
     RDKit          3D

 23 24  0  0  0  0  0  0  0  0999 V2000
   -7.0460  -34.1995  -15.8634 C   0  0  1  0  0  0  0  0  0  0  0  0
   -7.5639  -35.4307  -15.1528 C   0  0  1  0  0  0  0  0  0  0  0  0
   -6.4797  -36.5102  -15.1791 C   0  0  2  0  0  0  0  0  0  0  0  0
   -6.2325  -36.7751  -16.6715 C   0  0  1  0  0  0  0  0  0  0  0  0
   -5.6569  -35.4936  -17.2158 C   0  0  1  0  0  0  0  0  0  0  0  0
   -6.2347  -35.2028  -18.5859 C   0  0  0  0  0  0  0  0  0  0  0  0
   -6.9674  -33.1908  -14.9673 O   0  0  0  0  0  0  0  0  0  0  0  0
   -7.8342  -35.1993  -13.7955 O   0  0  0  0  0  0  0  0  0  0  0  0
   -6.9210  -37.6413  -14.5372 O   0  0  0  0  0  0  0  0  0  0  0  0
   -5.3880  -37.8648  -16.8514 O   0  0  0  0  0  0  0  0  0  0  0  0
   -5.7451  -34.4359  -16.3573 O   0  0  0  0  0  0  0  0  0  0  0  0
   -5.3660  -34.4234  -19.3481 O   0  0  0  0  0  0  0  0  0  0  0  0
   -7.6190  -31.6829  -16.7366 C   0  0  0  0  0  0  0  0  0  0  0  0
   -7.2519  -31.9185  -15.2973 C   0  0  1  0  0  0  0  0  0  0  0  0
   -8.2450  -31.3150  -14.3717 C   0  0  2  0  0  0  0  0  0  0  0  0
   -7.3195  -30.6636  -13.3246 C   0  0  1  0  0  0  0  0  0  0  0  0
   -6.2656  -30.1444  -14.2881 C   0  0  1  0  0  0  0  0  0  0  0  0
   -4.9724  -29.8066  -13.5534 C   0  0  0  0  0  0  0  0  0  0  0  0
   -7.6065  -30.3692  -17.1162 O   0  0  0  0  0  0  0  0  0  0  0  0
   -6.0411  -31.2032  -15.1105 O   0  0  0  0  0  0  0  0  0  0  0  0
   -9.0706  -32.1935  -13.7348 O   0  0  0  0  0  0  0  0  0  0  0  0
   -7.9554  -29.6579  -12.6381 O   0  0  0  0  0  0  0  0  0  0  0  0
   -4.3179  -30.9470  -13.1548 O   0  0  0  0  0  0  0  0  0  0  0  0
  1  2  1  0
  1  7  1  1
  1 11  1  0
  2  3  1  0
  2  8  1  1
  3  4  1  0
  3  9  1  1
  5  4  1  0
  4 10  1  1
  5  6  1  6
 11  5  1  0
  6 12  1  0
 14  7  1  0
 14 13  1  6
 13 19  1  0
 14 15  1  0
 20 14  1  0
 16 15  1  0
 15 21  1  1
 17 16  1  0
 16 22  1  6
 17 18  1  1
 17 20  1  0
 23 18  1  0
M  END
$$$$
