
     RDKit          3D

 23 24  0  0  0  0  0  0  0  0999 V2000
   -6.9578  -33.0730  -14.9053 C   0  0  1  0  0  0  0  0  0  0  0  0
   -7.1111  -32.4417  -13.5388 C   0  0  1  0  0  0  0  0  0  0  0  0
   -7.7303  -31.0520  -13.7023 C   0  0  2  0  0  0  0  0  0  0  0  0
   -6.7297  -30.2821  -14.5767 C   0  0  1  0  0  0  0  0  0  0  0  0
   -6.7434  -30.9813  -15.9112 C   0  0  1  0  0  0  0  0  0  0  0  0
   -5.3369  -31.0708  -16.4676 C   0  0  0  0  0  0  0  0  0  0  0  0
   -7.7459  -34.1696  -14.9597 O   0  0  0  0  0  0  0  0  0  0  0  0
   -7.9916  -33.1528  -12.7094 O   0  0  0  0  0  0  0  0  0  0  0  0
   -7.8849  -30.4544  -12.4755 O   0  0  0  0  0  0  0  0  0  0  0  0
   -7.0773  -28.9390  -14.6679 O   0  0  0  0  0  0  0  0  0  0  0  0
   -7.3983  -32.1789  -15.9046 O   0  0  0  0  0  0  0  0  0  0  0  0
   -5.2826  -30.6194  -17.7853 O   0  0  0  0  0  0  0  0  0  0  0  0
   -7.4022  -36.5246  -14.5543 C   0  0  0  0  0  0  0  0  0  0  0  0
   -7.3127  -35.3356  -15.4709 C   0  0  1  0  0  0  0  0  0  0  0  0
   -7.9192  -35.6183  -16.7974 C   0  0  2  0  0  0  0  0  0  0  0  0
   -6.8689  -35.0021  -17.7431 C   0  0  1  0  0  0  0  0  0  0  0  0
   -5.6317  -35.4562  -16.9868 C   0  0  1  0  0  0  0  0  0  0  0  0
   -4.4051  -34.6575  -17.4160 C   0  0  0  0  0  0  0  0  0  0  0  0
   -6.2786  -37.3036  -14.5264 O   0  0  0  0  0  0  0  0  0  0  0  0
   -5.9236  -35.1540  -15.6940 O   0  0  0  0  0  0  0  0  0  0  0  0
   -9.1220  -35.0226  -17.0372 O   0  0  0  0  0  0  0  0  0  0  0  0
   -6.9463  -35.5351  -19.0068 O   0  0  0  0  0  0  0  0  0  0  0  0
   -3.7353  -34.1564  -16.3262 O   0  0  0  0  0  0  0  0  0  0  0  0
  1  2  1  0
  1  7  1  1
  1 11  1  0
  2  3  1  0
  2  8  1  1
  3  4  1  0
  3  9  1  1
  5  4  1  0
  4 10  1  6
  5  6  1  1
 11  5  1  0
  6 12  1  0
 14  7  1  0
 14 13  1  1
 13 19  1  0
 14 15  1  0
 20 14  1  0
 16 15  1  0
 15 21  1  1
 17 16  1  0
 16 22  1  6
 17 18  1  6
 17 20  1  0
 23 18  1  0
M  END
$$$$
