
     RDKit          3D

 23 24  0  0  0  0  0  0  0  0999 V2000
   -6.5955  -33.3682  -14.9233 C   0  0  1  0  0  0  0  0  0  0  0  0
   -5.1157  -33.1172  -14.7323 C   0  0  1  0  0  0  0  0  0  0  0  0
   -4.8319  -32.9437  -13.2386 C   0  0  2  0  0  0  0  0  0  0  0  0
   -5.6745  -31.7290  -12.8225 C   0  0  1  0  0  0  0  0  0  0  0  0
   -7.1083  -32.1567  -12.9992 C   0  0  1  0  0  0  0  0  0  0  0  0
   -7.9235  -31.0201  -13.5818 C   0  0  0  0  0  0  0  0  0  0  0  0
   -6.7553  -34.6082  -15.4366 O   0  0  0  0  0  0  0  0  0  0  0  0
   -4.3249  -34.2007  -15.1440 O   0  0  0  0  0  0  0  0  0  0  0  0
   -3.4931  -32.7170  -13.0335 O   0  0  0  0  0  0  0  0  0  0  0  0
   -5.3836  -31.3433  -11.5188 O   0  0  0  0  0  0  0  0  0  0  0  0
   -7.2583  -33.3316  -13.6778 O   0  0  0  0  0  0  0  0  0  0  0  0
   -8.9537  -30.6418  -12.7223 O   0  0  0  0  0  0  0  0  0  0  0  0
   -9.0287  -35.3099  -15.8464 C   0  0  0  0  0  0  0  0  0  0  0  0
   -7.6853  -34.8808  -16.3689 C   0  0  1  0  0  0  0  0  0  0  0  0
   -7.8083  -33.7858  -17.3655 C   0  0  2  0  0  0  0  0  0  0  0  0
   -6.8192  -34.2571  -18.4502 C   0  0  1  0  0  0  0  0  0  0  0  0
   -7.1635  -35.7362  -18.4023 C   0  0  1  0  0  0  0  0  0  0  0  0
   -6.0688  -36.5736  -19.0557 C   0  0  0  0  0  0  0  0  0  0  0  0
   -9.3756  -34.7489  -14.6485 O   0  0  0  0  0  0  0  0  0  0  0  0
   -7.1922  -36.0105  -17.0711 O   0  0  0  0  0  0  0  0  0  0  0  0
   -7.4255  -32.5495  -16.9364 O   0  0  0  0  0  0  0  0  0  0  0  0
   -7.0906  -33.6862  -19.6698 O   0  0  0  0  0  0  0  0  0  0  0  0
   -4.9877  -36.7134  -18.2195 O   0  0  0  0  0  0  0  0  0  0  0  0
  1  2  1  0
  1  7  1  1
  1 11  1  0
  2  3  1  0
  2  8  1  1
  3  4  1  0
  3  9  1  6
  5  4  1  0
  4 10  1  1
  5  6  1  6
 11  5  1  0
  6 12  1  0
 14  7  1  0
 14 13  1  1
 13 19  1  0
 14 15  1  0
 20 14  1  0
 16 15  1  0
 15 21  1  1
 17 16  1  0
 16 22  1  6
 17 18  1  6
 17 20  1  0
 23 18  1  0
M  END
$$$$
