
     RDKit          3D

 23 24  0  0  0  0  0  0  0  0999 V2000
   -7.0805  -34.1131  -15.0376 C   0  0  1  0  0  0  0  0  0  0  0  0
   -7.6774  -35.3501  -14.4030 C   0  0  1  0  0  0  0  0  0  0  0  0
   -6.5504  -36.3335  -14.0800 C   0  0  2  0  0  0  0  0  0  0  0  0
   -5.9060  -36.6445  -15.4390 C   0  0  1  0  0  0  0  0  0  0  0  0
   -5.3004  -35.3449  -15.9017 C   0  0  1  0  0  0  0  0  0  0  0  0
   -5.5214  -35.1673  -17.3902 C   0  0  0  0  0  0  0  0  0  0  0  0
   -7.3085  -33.0614  -14.2199 O   0  0  0  0  0  0  0  0  0  0  0  0
   -8.3066  -35.0806  -13.1781 O   0  0  0  0  0  0  0  0  0  0  0  0
   -7.0626  -37.4675  -13.4988 O   0  0  0  0  0  0  0  0  0  0  0  0
   -4.9693  -37.6656  -15.3248 O   0  0  0  0  0  0  0  0  0  0  0  0
   -5.6827  -34.2604  -15.1662 O   0  0  0  0  0  0  0  0  0  0  0  0
   -4.3607  -35.4413  -18.1119 O   0  0  0  0  0  0  0  0  0  0  0  0
   -8.9452  -31.2869  -14.1874 C   0  0  0  0  0  0  0  0  0  0  0  0
   -7.6450  -31.8485  -14.6932 C   0  0  1  0  0  0  0  0  0  0  0  0
   -6.5341  -30.8719  -14.5539 C   0  0  2  0  0  0  0  0  0  0  0  0
   -5.8284  -31.0264  -15.9159 C   0  0  1  0  0  0  0  0  0  0  0  0
   -7.0772  -31.1476  -16.7729 C   0  0  1  0  0  0  0  0  0  0  0  0
   -6.7468  -31.7383  -18.1398 C   0  0  0  0  0  0  0  0  0  0  0  0
   -8.9591  -31.0092  -12.8485 O   0  0  0  0  0  0  0  0  0  0  0  0
   -7.8470  -32.0323  -16.0853 O   0  0  0  0  0  0  0  0  0  0  0  0
   -5.6332  -31.1374  -13.5654 O   0  0  0  0  0  0  0  0  0  0  0  0
   -5.0740  -29.9214  -16.2271 O   0  0  0  0  0  0  0  0  0  0  0  0
   -7.7213  -32.6170  -18.5473 O   0  0  0  0  0  0  0  0  0  0  0  0
  1  2  1  0
  1  7  1  1
  1 11  1  0
  2  3  1  0
  2  8  1  1
  3  4  1  0
  3  9  1  6
  5  4  1  0
  4 10  1  1
  5  6  1  6
 11  5  1  0
  6 12  1  0
 14  7  1  0
 14 13  1  1
 13 19  1  0
 14 15  1  0
 20 14  1  0
 16 15  1  0
 15 21  1  1
 17 16  1  0
 16 22  1  6
 17 18  1  6
 17 20  1  0
 23 18  1  0
M  END
$$$$
