
     RDKit          3D

 23 24  0  0  0  0  0  0  0  0999 V2000
   -6.5051  -32.5408  -14.5677 C   0  0  1  0  0  0  0  0  0  0  0  0
   -7.6582  -32.1971  -13.6505 C   0  0  1  0  0  0  0  0  0  0  0  0
   -7.8818  -30.6836  -13.6823 C   0  0  2  0  0  0  0  0  0  0  0  0
   -6.5583  -30.0856  -13.1827 C   0  0  1  0  0  0  0  0  0  0  0  0
   -5.5352  -30.4487  -14.2274 C   0  0  1  0  0  0  0  0  0  0  0  0
   -4.2296  -30.8395  -13.5651 C   0  0  0  0  0  0  0  0  0  0  0  0
   -6.9752  -33.3101  -15.5745 O   0  0  0  0  0  0  0  0  0  0  0  0
   -8.8706  -32.7672  -14.0675 O   0  0  0  0  0  0  0  0  0  0  0  0
   -8.9268  -30.3412  -12.8597 O   0  0  0  0  0  0  0  0  0  0  0  0
   -6.6714  -28.7130  -12.9929 O   0  0  0  0  0  0  0  0  0  0  0  0
   -5.9731  -31.3651  -15.1395 O   0  0  0  0  0  0  0  0  0  0  0  0
   -3.6117  -29.7393  -12.9729 O   0  0  0  0  0  0  0  0  0  0  0  0
   -5.0567  -34.7534  -15.3193 C   0  0  0  0  0  0  0  0  0  0  0  0
   -6.4309  -34.5022  -15.8765 C   0  0  1  0  0  0  0  0  0  0  0  0
   -7.3572  -35.6252  -15.5797 C   0  0  2  0  0  0  0  0  0  0  0  0
   -8.0695  -35.7911  -16.9370 C   0  0  1  0  0  0  0  0  0  0  0  0
   -6.8544  -35.5808  -17.8247 C   0  0  1  0  0  0  0  0  0  0  0  0
   -7.2723  -35.2577  -19.2556 C   0  0  0  0  0  0  0  0  0  0  0  0
   -4.0523  -34.0929  -15.9710 O   0  0  0  0  0  0  0  0  0  0  0  0
   -6.2540  -34.4877  -17.2839 O   0  0  0  0  0  0  0  0  0  0  0  0
   -8.2973  -35.3798  -14.6231 O   0  0  0  0  0  0  0  0  0  0  0  0
   -8.6194  -37.0424  -17.0742 O   0  0  0  0  0  0  0  0  0  0  0  0
   -7.2116  -33.9062  -19.4952 O   0  0  0  0  0  0  0  0  0  0  0  0
  1  2  1  0
  1  7  1  6
  1 11  1  0
  2  3  1  0
  2  8  1  6
  3  4  1  0
  3  9  1  1
  5  4  1  0
  4 10  1  6
  5  6  1  1
 11  5  1  0
  6 12  1  0
 14  7  1  0
 14 13  1  1
 13 19  1  0
 14 15  1  0
 20 14  1  0
 16 15  1  0
 15 21  1  1
 17 16  1  0
 16 22  1  1
 17 18  1  6
 17 20  1  0
 23 18  1  0
M  END
$$$$
