
     RDKit          3D

 23 24  0  0  0  0  0  0  0  0999 V2000
   -6.8402  -32.8843  -14.6126 C   0  0  1  0  0  0  0  0  0  0  0  0
   -7.2235  -31.8897  -13.5388 C   0  0  1  0  0  0  0  0  0  0  0  0
   -7.6615  -30.5845  -14.2067 C   0  0  2  0  0  0  0  0  0  0  0  0
   -6.4297  -30.1219  -14.9987 C   0  0  1  0  0  0  0  0  0  0  0  0
   -6.2219  -31.1677  -16.0631 C   0  0  1  0  0  0  0  0  0  0  0  0
   -4.7434  -31.4517  -16.2337 C   0  0  0  0  0  0  0  0  0  0  0  0
   -7.6966  -33.9281  -14.5529 O   0  0  0  0  0  0  0  0  0  0  0  0
   -8.3234  -32.3122  -12.7769 O   0  0  0  0  0  0  0  0  0  0  0  0
   -8.0192  -29.6615  -13.2549 O   0  0  0  0  0  0  0  0  0  0  0  0
   -6.6234  -28.8491  -15.5236 O   0  0  0  0  0  0  0  0  0  0  0  0
   -6.9714  -32.2952  -15.8884 O   0  0  0  0  0  0  0  0  0  0  0  0
   -4.3758  -31.4380  -17.5782 O   0  0  0  0  0  0  0  0  0  0  0  0
   -6.9349  -36.0387  -13.6618 C   0  0  0  0  0  0  0  0  0  0  0  0
   -7.3125  -35.1845  -14.8406 C   0  0  1  0  0  0  0  0  0  0  0  0
   -8.2863  -35.8721  -15.7273 C   0  0  2  0  0  0  0  0  0  0  0  0
   -7.7027  -35.5503  -17.1176 C   0  0  1  0  0  0  0  0  0  0  0  0
   -6.2359  -35.7238  -16.7611 C   0  0  1  0  0  0  0  0  0  0  0  0
   -5.3384  -35.0666  -17.8047 C   0  0  0  0  0  0  0  0  0  0  0  0
   -7.9641  -36.7752  -13.1437 O   0  0  0  0  0  0  0  0  0  0  0  0
   -6.1144  -35.0482  -15.5877 O   0  0  0  0  0  0  0  0  0  0  0  0
   -9.5663  -35.4054  -15.6750 O   0  0  0  0  0  0  0  0  0  0  0  0
   -8.1292  -36.4451  -18.0686 O   0  0  0  0  0  0  0  0  0  0  0  0
   -5.6571  -33.7400  -17.9660 O   0  0  0  0  0  0  0  0  0  0  0  0
  1  2  1  0
  1  7  1  6
  1 11  1  0
  2  3  1  0
  2  8  1  6
  3  4  1  0
  3  9  1  1
  5  4  1  0
  4 10  1  6
  5  6  1  1
 11  5  1  0
  6 12  1  0
 14  7  1  0
 14 13  1  1
 13 19  1  0
 14 15  1  0
 20 14  1  0
 16 15  1  0
 15 21  1  6
 17 16  1  0
 16 22  1  6
 17 18  1  6
 17 20  1  0
 23 18  1  0
M  END
$$$$
