
     RDKit          3D

 23 24  0  0  0  0  0  0  0  0999 V2000
   -6.9387  -33.9858  -14.8824 C   0  0  1  0  0  0  0  0  0  0  0  0
   -7.7449  -33.1945  -13.8758 C   0  0  1  0  0  0  0  0  0  0  0  0
   -6.9379  -31.9655  -13.4516 C   0  0  2  0  0  0  0  0  0  0  0  0
   -5.6557  -32.5392  -12.8305 C   0  0  1  0  0  0  0  0  0  0  0  0
   -4.9363  -33.2276  -13.9611 C   0  0  1  0  0  0  0  0  0  0  0  0
   -4.3294  -34.5290  -13.4776 C   0  0  0  0  0  0  0  0  0  0  0  0
   -7.6019  -33.9796  -16.0600 O   0  0  0  0  0  0  0  0  0  0  0  0
   -8.9410  -32.6944  -14.4127 O   0  0  0  0  0  0  0  0  0  0  0  0
   -7.6471  -31.2244  -12.5385 O   0  0  0  0  0  0  0  0  0  0  0  0
   -4.8960  -31.5361  -12.2392 O   0  0  0  0  0  0  0  0  0  0  0  0
   -5.6865  -33.3696  -15.0928 O   0  0  0  0  0  0  0  0  0  0  0  0
   -2.9678  -34.5933  -13.7692 O   0  0  0  0  0  0  0  0  0  0  0  0
   -6.1890  -35.8045  -16.7687 C   0  0  0  0  0  0  0  0  0  0  0  0
   -7.3314  -34.8637  -17.0366 C   0  0  1  0  0  0  0  0  0  0  0  0
   -8.5493  -35.5910  -17.4783 C   0  0  2  0  0  0  0  0  0  0  0  0
   -9.0238  -34.6987  -18.6426 C   0  0  1  0  0  0  0  0  0  0  0  0
   -7.6556  -34.3978  -19.2311 C   0  0  1  0  0  0  0  0  0  0  0  0
   -7.7134  -33.1877  -20.1578 C   0  0  0  0  0  0  0  0  0  0  0  0
   -5.9989  -36.7536  -17.7347 O   0  0  0  0  0  0  0  0  0  0  0  0
   -6.9060  -34.0828  -18.1418 O   0  0  0  0  0  0  0  0  0  0  0  0
   -9.5533  -35.6764  -16.5597 O   0  0  0  0  0  0  0  0  0  0  0  0
   -9.8381  -35.3844  -19.5109 O   0  0  0  0  0  0  0  0  0  0  0  0
   -6.9990  -32.1343  -19.6405 O   0  0  0  0  0  0  0  0  0  0  0  0
  1  2  1  0
  1  7  1  6
  1 11  1  0
  2  3  1  0
  2  8  1  6
  3  4  1  0
  3  9  1  1
  5  4  1  0
  4 10  1  6
  5  6  1  1
 11  5  1  0
  6 12  1  0
 14  7  1  0
 14 13  1  1
 13 19  1  0
 14 15  1  0
 20 14  1  0
 16 15  1  0
 15 21  1  1
 17 16  1  0
 16 22  1  6
 17 18  1  6
 17 20  1  0
 23 18  1  0
M  END
$$$$
