
     RDKit          3D

 23 24  0  0  0  0  0  0  0  0999 V2000
   -5.7071  -34.0485  -15.3690 C   0  0  1  0  0  0  0  0  0  0  0  0
   -4.4500  -34.1063  -16.2091 C   0  0  1  0  0  0  0  0  0  0  0  0
   -4.8070  -34.6397  -17.5981 C   0  0  2  0  0  0  0  0  0  0  0  0
   -5.3845  -36.0391  -17.3394 C   0  0  1  0  0  0  0  0  0  0  0  0
   -6.6559  -35.8105  -16.5640 C   0  0  1  0  0  0  0  0  0  0  0  0
   -6.7977  -36.8549  -15.4754 C   0  0  0  0  0  0  0  0  0  0  0  0
   -5.9561  -32.7561  -15.0618 O   0  0  0  0  0  0  0  0  0  0  0  0
   -3.8836  -32.8407  -16.4242 O   0  0  0  0  0  0  0  0  0  0  0  0
   -3.6838  -34.7005  -18.3859 O   0  0  0  0  0  0  0  0  0  0  0  0
   -5.5958  -36.7199  -18.5331 O   0  0  0  0  0  0  0  0  0  0  0  0
   -6.8073  -34.5325  -16.1088 O   0  0  0  0  0  0  0  0  0  0  0  0
   -7.9096  -37.6671  -15.6930 O   0  0  0  0  0  0  0  0  0  0  0  0
   -6.4826  -32.6320  -12.7089 C   0  0  0  0  0  0  0  0  0  0  0  0
   -6.8733  -32.4043  -14.1433 C   0  0  1  0  0  0  0  0  0  0  0  0
   -7.3758  -31.0236  -14.3629 C   0  0  2  0  0  0  0  0  0  0  0  0
   -8.6074  -31.2919  -15.2505 C   0  0  1  0  0  0  0  0  0  0  0  0
   -9.1030  -32.5347  -14.5304 C   0  0  1  0  0  0  0  0  0  0  0  0
  -10.0792  -33.3185  -15.4016 C   0  0  0  0  0  0  0  0  0  0  0  0
   -7.2457  -31.9527  -11.7998 O   0  0  0  0  0  0  0  0  0  0  0  0
   -7.9738  -33.2725  -14.3611 O   0  0  0  0  0  0  0  0  0  0  0  0
   -6.5326  -30.1863  -15.0316 O   0  0  0  0  0  0  0  0  0  0  0  0
   -9.5062  -30.2542  -15.2020 O   0  0  0  0  0  0  0  0  0  0  0  0
   -9.7244  -34.6439  -15.4724 O   0  0  0  0  0  0  0  0  0  0  0  0
  1  2  1  0
  1  7  1  6
  1 11  1  0
  2  3  1  0
  2  8  1  6
  3  4  1  0
  3  9  1  6
  5  4  1  0
  4 10  1  6
  5  6  1  1
 11  5  1  0
  6 12  1  0
 14  7  1  0
 14 13  1  1
 13 19  1  0
 14 15  1  0
 20 14  1  0
 16 15  1  0
 15 21  1  6
 17 16  1  0
 16 22  1  1
 17 18  1  6
 17 20  1  0
 23 18  1  0
M  END
$$$$
