
     RDKit          3D

 23 24  0  0  0  0  0  0  0  0999 V2000
   -6.4021  -34.0995  -15.2655 C   0  0  1  0  0  0  0  0  0  0  0  0
   -5.4519  -35.0303  -14.5445 C   0  0  1  0  0  0  0  0  0  0  0  0
   -4.7787  -35.9432  -15.5716 C   0  0  2  0  0  0  0  0  0  0  0  0
   -5.9371  -36.7081  -16.2286 C   0  0  1  0  0  0  0  0  0  0  0  0
   -6.7428  -35.6650  -16.9584 C   0  0  1  0  0  0  0  0  0  0  0  0
   -8.2236  -35.9446  -16.8000 C   0  0  0  0  0  0  0  0  0  0  0  0
   -5.9624  -32.8317  -15.1039 O   0  0  0  0  0  0  0  0  0  0  0  0
   -4.4072  -34.3476  -13.9032 O   0  0  0  0  0  0  0  0  0  0  0  0
   -3.9062  -36.7992  -14.9455 O   0  0  0  0  0  0  0  0  0  0  0  0
   -5.4612  -37.7078  -17.0696 O   0  0  0  0  0  0  0  0  0  0  0  0
   -6.4000  -34.3805  -16.6486 O   0  0  0  0  0  0  0  0  0  0  0  0
   -8.6090  -37.0676  -17.5303 O   0  0  0  0  0  0  0  0  0  0  0  0
   -6.5533  -30.9014  -16.4281 C   0  0  0  0  0  0  0  0  0  0  0  0
   -6.7810  -31.7713  -15.2226 C   0  0  1  0  0  0  0  0  0  0  0  0
   -8.2094  -32.1561  -15.0852 C   0  0  2  0  0  0  0  0  0  0  0  0
   -8.4299  -31.9498  -13.5733 C   0  0  1  0  0  0  0  0  0  0  0  0
   -7.6229  -30.6706  -13.4287 C   0  0  1  0  0  0  0  0  0  0  0  0
   -7.2731  -30.4074  -11.9676 C   0  0  0  0  0  0  0  0  0  0  0  0
   -7.5987  -30.0751  -16.7354 O   0  0  0  0  0  0  0  0  0  0  0  0
   -6.4799  -30.9395  -14.1136 O   0  0  0  0  0  0  0  0  0  0  0  0
   -8.5060  -33.4505  -15.3947 O   0  0  0  0  0  0  0  0  0  0  0  0
   -9.7589  -31.7783  -13.2711 O   0  0  0  0  0  0  0  0  0  0  0  0
   -5.9144  -30.2954  -11.7970 O   0  0  0  0  0  0  0  0  0  0  0  0
  1  2  1  0
  1  7  1  6
  1 11  1  0
  2  3  1  0
  2  8  1  6
  3  4  1  0
  3  9  1  1
  5  4  1  0
  4 10  1  6
  5  6  1  1
 11  5  1  0
  6 12  1  0
 14  7  1  0
 14 13  1  6
 13 19  1  0
 14 15  1  0
 20 14  1  0
 16 15  1  0
 15 21  1  1
 17 16  1  0
 16 22  1  6
 17 18  1  1
 17 20  1  0
 23 18  1  0
M  END
$$$$
