
     RDKit          3D

 15 16  0  0  0  0  0  0  0  0999 V2000
  -12.5404    9.8415  -28.6075 C   0  0  0  0  0  0  0  0  0  0  0  0
  -12.4403    7.5521  -30.1412 C   0  0  0  0  0  0  0  0  0  0  0  0
  -12.0722    9.9153  -29.9000 C   0  0  0  0  0  0  0  0  0  0  0  0
  -12.4202   12.6854  -25.5413 O   0  0  0  0  0  0  0  0  0  0  0  0
  -12.6854   11.4751  -25.3266 C   0  0  0  0  0  0  0  0  0  0  0  0
  -12.8593   10.9823  -23.9773 C   0  0  0  0  0  0  0  0  0  0  0  0
  -12.6703   11.6363  -22.7825 C   0  0  0  0  0  0  0  0  0  0  0  0
  -12.9595   10.7604  -21.8078 N   0  0  0  0  0  0  0  0  0  0  0  0
  -13.3209    9.5900  -22.2964 N   0  0  0  0  0  0  0  0  0  0  0  0
  -13.2633    9.7129  -23.6489 C   0  0  0  0  0  0  0  0  0  0  0  0
  -12.7956   10.6705  -26.4499 O   0  0  0  0  0  0  0  0  0  0  0  0
  -12.5987   11.0887  -27.7611 C   0  0  0  0  0  0  0  0  0  0  0  0
  -12.9465    8.6442  -28.1045 C   0  0  0  0  0  0  0  0  0  0  0  0
  -12.9079    7.4860  -28.8461 C   0  0  0  0  0  0  0  0  0  0  0  0
  -12.0279    8.7682  -30.6520 C   0  0  0  0  0  0  0  0  0  0  0  0
  1  3  1  0
 12  1  1  0
  1 13  2  0
  2 14  2  0
 15  2  1  0
  3 15  2  0
  5  4  2  0
  5  6  1  0
 11  5  1  0
  6  7  1  0
  6 10  2  0
  7  8  2  0
  9  8  1  0
 10  9  1  0
 11 12  1  0
 13 14  1  0
M  END
$$$$
