
     RDKit          3D

 15 16  0  0  0  0  0  0  0  0999 V2000
  -12.9036    9.5888  -28.5044 C   0  0  0  0  0  0  0  0  0  0  0  0
  -11.0978   10.0624  -30.5337 C   0  0  0  0  0  0  0  0  0  0  0  0
  -12.2301    8.5292  -29.0690 C   0  0  0  0  0  0  0  0  0  0  0  0
  -14.8040    8.9558  -24.8371 O   0  0  0  0  0  0  0  0  0  0  0  0
  -13.8560    9.7718  -24.9657 C   0  0  0  0  0  0  0  0  0  0  0  0
  -13.3254   10.4784  -23.8200 C   0  0  0  0  0  0  0  0  0  0  0  0
  -12.5689   11.6261  -23.7809 C   0  0  0  0  0  0  0  0  0  0  0  0
  -12.3224   11.8877  -22.4880 N   0  0  0  0  0  0  0  0  0  0  0  0
  -12.8693   10.9861  -21.6959 N   0  0  0  0  0  0  0  0  0  0  0  0
  -13.4987   10.1002  -22.5125 C   0  0  0  0  0  0  0  0  0  0  0  0
  -13.3708    9.9388  -26.2533 O   0  0  0  0  0  0  0  0  0  0  0  0
  -13.8934    9.3393  -27.3938 C   0  0  0  0  0  0  0  0  0  0  0  0
  -12.6708   10.8522  -28.9530 C   0  0  0  0  0  0  0  0  0  0  0  0
  -11.7760   11.1184  -29.9636 C   0  0  0  0  0  0  0  0  0  0  0  0
  -11.3343    8.7793  -30.0780 C   0  0  0  0  0  0  0  0  0  0  0  0
  1  3  1  0
 12  1  1  0
  1 13  2  0
  2 14  2  0
 15  2  1  0
  3 15  2  0
  5  4  2  0
  5  6  1  0
 11  5  1  0
  6  7  1  0
  6 10  2  0
  7  8  2  0
  9  8  1  0
 10  9  1  0
 11 12  1  0
 13 14  1  0
M  END
$$$$
