
     RDKit          3D

 15 16  0  0  0  0  0  0  0  0999 V2000
  -12.9240    9.9081  -28.5299 C   0  0  0  0  0  0  0  0  0  0  0  0
  -12.0585    7.9265  -30.2408 C   0  0  0  0  0  0  0  0  0  0  0  0
  -13.5991    8.7089  -28.5697 C   0  0  0  0  0  0  0  0  0  0  0  0
  -13.2293   12.6139  -25.3738 O   0  0  0  0  0  0  0  0  0  0  0  0
  -13.1229   11.3769  -25.1744 C   0  0  0  0  0  0  0  0  0  0  0  0
  -13.0612   10.8453  -23.8301 C   0  0  0  0  0  0  0  0  0  0  0  0
  -13.1598    9.5408  -23.4064 C   0  0  0  0  0  0  0  0  0  0  0  0
  -13.0422    9.5543  -22.0697 N   0  0  0  0  0  0  0  0  0  0  0  0
  -12.8748   10.7783  -21.6079 N   0  0  0  0  0  0  0  0  0  0  0  0
  -12.8845   11.5949  -22.6946 C   0  0  0  0  0  0  0  0  0  0  0  0
  -13.0706   10.5826  -26.3091 O   0  0  0  0  0  0  0  0  0  0  0  0
  -13.3904   10.9979  -27.5969 C   0  0  0  0  0  0  0  0  0  0  0  0
  -11.8420   10.1001  -29.3323 C   0  0  0  0  0  0  0  0  0  0  0  0
  -11.3876    9.1298  -30.1955 C   0  0  0  0  0  0  0  0  0  0  0  0
  -13.1575    7.7316  -29.4258 C   0  0  0  0  0  0  0  0  0  0  0  0
  1  3  1  0
 12  1  1  0
  1 13  2  0
  2 14  2  0
 15  2  1  0
  3 15  2  0
  5  4  2  0
  5  6  1  0
 11  5  1  0
  6  7  1  0
  6 10  2  0
  7  8  2  0
  9  8  1  0
 10  9  1  0
 11 12  1  0
 13 14  1  0
M  END
$$$$
