
     RDKit          3D

 15 16  0  0  0  0  0  0  0  0999 V2000
  -23.2431   20.0619  -11.7013 C   0  0  0  0  0  0  0  0  0  0  0  0
  -23.9968   20.9642   -9.2071 C   0  0  0  0  0  0  0  0  0  0  0  0
  -22.4272   20.9426  -11.0275 C   0  0  0  0  0  0  0  0  0  0  0  0
  -21.5532   18.0740  -14.9735 O   0  0  0  0  0  0  0  0  0  0  0  0
  -20.9432   18.2127  -13.8827 C   0  0  0  0  0  0  0  0  0  0  0  0
  -19.6465   17.6049  -13.6760 C   0  0  0  0  0  0  0  0  0  0  0  0
  -19.1481   16.9806  -12.5567 C   0  0  0  0  0  0  0  0  0  0  0  0
  -17.9015   16.5825  -12.8539 N   0  0  0  0  0  0  0  0  0  0  0  0
  -17.5671   16.9089  -14.0871 N   0  0  0  0  0  0  0  0  0  0  0  0
  -18.6457   17.5475  -14.6129 C   0  0  0  0  0  0  0  0  0  0  0  0
  -21.5893   18.9715  -12.9193 O   0  0  0  0  0  0  0  0  0  0  0  0
  -22.8389   19.5630  -13.0662 C   0  0  0  0  0  0  0  0  0  0  0  0
  -24.4071   19.6491  -11.1303 C   0  0  0  0  0  0  0  0  0  0  0  0
  -24.8087   20.0823   -9.8877 C   0  0  0  0  0  0  0  0  0  0  0  0
  -22.8145   21.3835   -9.7871 C   0  0  0  0  0  0  0  0  0  0  0  0
  1  3  1  0
 12  1  1  0
  1 13  2  0
  2 14  2  0
 15  2  1  0
  3 15  2  0
  5  4  2  0
  5  6  1  0
 11  5  1  0
  6  7  1  0
  6 10  2  0
  7  8  2  0
  9  8  1  0
 10  9  1  0
 11 12  1  0
 13 14  1  0
M  END
$$$$
