
     RDKit          3D

 15 16  0  0  0  0  0  0  0  0999 V2000
  -23.3063   19.9185  -11.7653 C   0  0  0  0  0  0  0  0  0  0  0  0
  -24.2617   20.7472   -9.3151 C   0  0  0  0  0  0  0  0  0  0  0  0
  -22.7268   21.0035  -11.1471 C   0  0  0  0  0  0  0  0  0  0  0  0
  -21.4559   17.8592  -14.8988 O   0  0  0  0  0  0  0  0  0  0  0  0
  -20.8747   18.0698  -13.8037 C   0  0  0  0  0  0  0  0  0  0  0  0
  -19.5343   17.5778  -13.5693 C   0  0  0  0  0  0  0  0  0  0  0  0
  -18.8444   16.5880  -14.2291 C   0  0  0  0  0  0  0  0  0  0  0  0
  -17.6391   16.4969  -13.6462 N   0  0  0  0  0  0  0  0  0  0  0  0
  -17.5096   17.3605  -12.6580 N   0  0  0  0  0  0  0  0  0  0  0  0
  -18.6841   18.0422  -12.5978 C   0  0  0  0  0  0  0  0  0  0  0  0
  -21.5956   18.7894  -12.8636 O   0  0  0  0  0  0  0  0  0  0  0  0
  -22.7903   19.4581  -13.1059 C   0  0  0  0  0  0  0  0  0  0  0  0
  -24.3396   19.2708  -11.1618 C   0  0  0  0  0  0  0  0  0  0  0  0
  -24.8370   19.6616   -9.9401 C   0  0  0  0  0  0  0  0  0  0  0  0
  -23.2122   21.4051   -9.9280 C   0  0  0  0  0  0  0  0  0  0  0  0
  1  3  1  0
 12  1  1  0
  1 13  2  0
  2 14  2  0
 15  2  1  0
  3 15  2  0
  5  4  2  0
  5  6  1  0
 11  5  1  0
  6  7  1  0
  6 10  2  0
  7  8  2  0
  9  8  1  0
 10  9  1  0
 11 12  1  0
 13 14  1  0
M  END
$$$$
