
     RDKit          3D

 15 16  0  0  0  0  0  0  0  0999 V2000
  -23.2988   20.2446  -11.8827 C   0  0  0  0  0  0  0  0  0  0  0  0
  -25.6815   19.5573  -10.6771 C   0  0  0  0  0  0  0  0  0  0  0  0
  -23.4031   19.0336  -11.2364 C   0  0  0  0  0  0  0  0  0  0  0  0
  -19.3947   20.4502  -13.3835 O   0  0  0  0  0  0  0  0  0  0  0  0
  -19.9729   19.3586  -13.1484 C   0  0  0  0  0  0  0  0  0  0  0  0
  -19.2642   18.1031  -13.2701 C   0  0  0  0  0  0  0  0  0  0  0  0
  -17.9360   17.8785  -13.5467 C   0  0  0  0  0  0  0  0  0  0  0  0
  -17.7580   16.5484  -13.5541 N   0  0  0  0  0  0  0  0  0  0  0  0
  -18.8813   15.9054  -13.3012 N   0  0  0  0  0  0  0  0  0  0  0  0
  -19.8302   16.8620  -13.1217 C   0  0  0  0  0  0  0  0  0  0  0  0
  -21.3046   19.4466  -12.7740 O   0  0  0  0  0  0  0  0  0  0  0  0
  -21.9992   20.6291  -12.5450 C   0  0  0  0  0  0  0  0  0  0  0  0
  -24.3688   21.0845  -11.9186 C   0  0  0  0  0  0  0  0  0  0  0  0
  -25.5696   20.7682  -11.3262 C   0  0  0  0  0  0  0  0  0  0  0  0
  -24.5947   18.7043  -10.6408 C   0  0  0  0  0  0  0  0  0  0  0  0
  1  3  1  0
 12  1  1  0
  1 13  2  0
  2 14  2  0
 15  2  1  0
  3 15  2  0
  5  4  2  0
  5  6  1  0
 11  5  1  0
  6  7  1  0
  6 10  2  0
  7  8  2  0
  9  8  1  0
 10  9  1  0
 11 12  1  0
 13 14  1  0
M  END
$$$$
