
     RDKit          3D

 15 16  0  0  0  0  0  0  0  0999 V2000
  -23.1484   20.3704  -11.6579 C   0  0  0  0  0  0  0  0  0  0  0  0
  -24.9737   20.0004   -9.6246 C   0  0  0  0  0  0  0  0  0  0  0  0
  -24.4885   20.2858  -11.9615 C   0  0  0  0  0  0  0  0  0  0  0  0
  -19.9294   20.2174  -14.3401 O   0  0  0  0  0  0  0  0  0  0  0  0
  -20.2170   19.2620  -13.5747 C   0  0  0  0  0  0  0  0  0  0  0  0
  -19.3962   18.0711  -13.5350 C   0  0  0  0  0  0  0  0  0  0  0  0
  -19.7205   16.8065  -13.1030 C   0  0  0  0  0  0  0  0  0  0  0  0
  -18.6264   16.0463  -13.2635 N   0  0  0  0  0  0  0  0  0  0  0  0
  -17.6232   16.7373  -13.7688 N   0  0  0  0  0  0  0  0  0  0  0  0
  -18.0882   18.0026  -13.9437 C   0  0  0  0  0  0  0  0  0  0  0  0
  -21.3491   19.4314  -12.7932 O   0  0  0  0  0  0  0  0  0  0  0  0
  -22.1426   20.5727  -12.7637 C   0  0  0  0  0  0  0  0  0  0  0  0
  -22.7425   20.2707  -10.3630 C   0  0  0  0  0  0  0  0  0  0  0  0
  -23.6302   20.0860   -9.3282 C   0  0  0  0  0  0  0  0  0  0  0  0
  -25.3859   20.1016  -10.9398 C   0  0  0  0  0  0  0  0  0  0  0  0
  1  3  1  0
 12  1  1  0
  1 13  2  0
  2 14  2  0
 15  2  1  0
  3 15  2  0
  5  4  2  0
  5  6  1  0
 11  5  1  0
  6  7  1  0
  6 10  2  0
  7  8  2  0
  9  8  1  0
 10  9  1  0
 11 12  1  0
 13 14  1  0
M  END
$$$$
