
     RDKit          3D

 15 16  0  0  0  0  0  0  0  0999 V2000
  -23.5011   19.9034  -11.9451 C   0  0  0  0  0  0  0  0  0  0  0  0
  -26.0289   19.1188  -11.1722 C   0  0  0  0  0  0  0  0  0  0  0  0
  -23.6681   18.6903  -11.3160 C   0  0  0  0  0  0  0  0  0  0  0  0
  -19.7002   20.2929  -13.7079 O   0  0  0  0  0  0  0  0  0  0  0  0
  -20.2008   19.1822  -13.3966 C   0  0  0  0  0  0  0  0  0  0  0  0
  -19.4469   17.9578  -13.5583 C   0  0  0  0  0  0  0  0  0  0  0  0
  -18.1118   17.7907  -13.8422 C   0  0  0  0  0  0  0  0  0  0  0  0
  -17.8854   16.4689  -13.8917 N   0  0  0  0  0  0  0  0  0  0  0  0
  -18.9841   15.7777  -13.6589 N   0  0  0  0  0  0  0  0  0  0  0  0
  -19.9671   16.6929  -13.4490 C   0  0  0  0  0  0  0  0  0  0  0  0
  -21.4945   19.2184  -12.9004 O   0  0  0  0  0  0  0  0  0  0  0  0
  -22.1218   20.3408  -12.3714 C   0  0  0  0  0  0  0  0  0  0  0  0
  -24.5815   20.6974  -12.1770 C   0  0  0  0  0  0  0  0  0  0  0  0
  -25.8540   20.3321  -11.8027 C   0  0  0  0  0  0  0  0  0  0  0  0
  -24.9316   18.3124  -10.9367 C   0  0  0  0  0  0  0  0  0  0  0  0
  1  3  1  0
 12  1  1  0
  1 13  2  0
  2 14  2  0
 15  2  1  0
  3 15  2  0
  5  4  2  0
  5  6  1  0
 11  5  1  0
  6  7  1  0
  6 10  2  0
  7  8  2  0
  9  8  1  0
 10  9  1  0
 11 12  1  0
 13 14  1  0
M  END
$$$$
