
     RDKit          3D

 15 16  0  0  0  0  0  0  0  0999 V2000
  -21.8574   15.5462  -15.0090 C   0  0  0  0  0  0  0  0  0  0  0  0
  -24.0831   16.3517  -13.5947 C   0  0  0  0  0  0  0  0  0  0  0  0
  -21.9349   16.8434  -14.5547 C   0  0  0  0  0  0  0  0  0  0  0  0
  -18.1311   15.2135  -16.9545 O   0  0  0  0  0  0  0  0  0  0  0  0
  -18.3063   15.8760  -15.9002 C   0  0  0  0  0  0  0  0  0  0  0  0
  -17.1883   16.4868  -15.2142 C   0  0  0  0  0  0  0  0  0  0  0  0
  -15.8610   16.5177  -15.5724 C   0  0  0  0  0  0  0  0  0  0  0  0
  -15.2142   17.2023  -14.6164 N   0  0  0  0  0  0  0  0  0  0  0  0
  -16.0363   17.6121  -13.6701 N   0  0  0  0  0  0  0  0  0  0  0  0
  -17.2718   17.1733  -14.0291 C   0  0  0  0  0  0  0  0  0  0  0  0
  -19.6158   15.9742  -15.4568 O   0  0  0  0  0  0  0  0  0  0  0  0
  -20.6435   15.0966  -15.7836 C   0  0  0  0  0  0  0  0  0  0  0  0
  -22.8762   14.6807  -14.7556 C   0  0  0  0  0  0  0  0  0  0  0  0
  -23.9984   15.0544  -14.0528 C   0  0  0  0  0  0  0  0  0  0  0  0
  -23.0483   17.2308  -13.8522 C   0  0  0  0  0  0  0  0  0  0  0  0
  1  3  1  0
 12  1  1  0
  1 13  2  0
  2 14  2  0
 15  2  1  0
  3 15  2  0
  5  4  2  0
  5  6  1  0
 11  5  1  0
  6  7  1  0
  6 10  2  0
  7  8  2  0
  9  8  1  0
 10  9  1  0
 11 12  1  0
 13 14  1  0
M  END
$$$$
