
     RDKit          3D

 15 16  0  0  0  0  0  0  0  0999 V2000
  -23.4936   20.0356  -11.8891 C   0  0  0  0  0  0  0  0  0  0  0  0
  -25.5962   19.2788  -10.2737 C   0  0  0  0  0  0  0  0  0  0  0  0
  -24.1423   18.8473  -12.1387 C   0  0  0  0  0  0  0  0  0  0  0  0
  -19.7076   20.5193  -13.5183 O   0  0  0  0  0  0  0  0  0  0  0  0
  -20.1791   19.3817  -13.2639 C   0  0  0  0  0  0  0  0  0  0  0  0
  -19.3503   18.1990  -13.3526 C   0  0  0  0  0  0  0  0  0  0  0  0
  -17.9933   18.1021  -13.5531 C   0  0  0  0  0  0  0  0  0  0  0  0
  -17.6917   16.7945  -13.5590 N   0  0  0  0  0  0  0  0  0  0  0  0
  -18.7626   16.0469  -13.3761 N   0  0  0  0  0  0  0  0  0  0  0  0
  -19.8054   16.9090  -13.2457 C   0  0  0  0  0  0  0  0  0  0  0  0
  -21.5166   19.3472  -12.9017 O   0  0  0  0  0  0  0  0  0  0  0  0
  -22.3423   20.4577  -12.7676 C   0  0  0  0  0  0  0  0  0  0  0  0
  -23.8964   20.8192  -10.8521 C   0  0  0  0  0  0  0  0  0  0  0  0
  -24.9418   20.4673  -10.0299 C   0  0  0  0  0  0  0  0  0  0  0  0
  -25.1870   18.4830  -11.3268 C   0  0  0  0  0  0  0  0  0  0  0  0
  1  3  1  0
 12  1  1  0
  1 13  2  0
  2 14  2  0
 15  2  1  0
  3 15  2  0
  5  4  2  0
  5  6  1  0
 11  5  1  0
  6  7  1  0
  6 10  2  0
  7  8  2  0
  9  8  1  0
 10  9  1  0
 11 12  1  0
 13 14  1  0
M  END
$$$$
