
     RDKit          3D

 15 16  0  0  0  0  0  0  0  0999 V2000
  -23.4535   20.1107  -11.9163 C   0  0  0  0  0  0  0  0  0  0  0  0
  -25.5800   19.3809  -10.3199 C   0  0  0  0  0  0  0  0  0  0  0  0
  -23.8710   20.9619  -10.9182 C   0  0  0  0  0  0  0  0  0  0  0  0
  -19.6427   20.5128  -13.4977 O   0  0  0  0  0  0  0  0  0  0  0  0
  -20.1434   19.3831  -13.2645 C   0  0  0  0  0  0  0  0  0  0  0  0
  -19.3436   18.1818  -13.3691 C   0  0  0  0  0  0  0  0  0  0  0  0
  -18.0217   18.0463  -13.7230 C   0  0  0  0  0  0  0  0  0  0  0  0
  -17.7366   16.7360  -13.6740 N   0  0  0  0  0  0  0  0  0  0  0  0
  -18.7854   16.0226  -13.3130 N   0  0  0  0  0  0  0  0  0  0  0  0
  -19.7959   16.9108  -13.1192 C   0  0  0  0  0  0  0  0  0  0  0  0
  -21.4832   19.3757  -12.9092 O   0  0  0  0  0  0  0  0  0  0  0  0
  -22.2909   20.5016  -12.7944 C   0  0  0  0  0  0  0  0  0  0  0  0
  -24.0928   18.9240  -12.1021 C   0  0  0  0  0  0  0  0  0  0  0  0
  -25.1563   18.5337  -11.3213 C   0  0  0  0  0  0  0  0  0  0  0  0
  -24.9306   20.5861  -10.1312 C   0  0  0  0  0  0  0  0  0  0  0  0
  1  3  1  0
 12  1  1  0
  1 13  2  0
  2 14  2  0
 15  2  1  0
  3 15  2  0
  5  4  2  0
  5  6  1  0
 11  5  1  0
  6  7  1  0
  6 10  2  0
  7  8  2  0
  9  8  1  0
 10  9  1  0
 11 12  1  0
 13 14  1  0
M  END
$$$$
