
     RDKit          3D

 15 16  0  0  0  0  0  0  0  0999 V2000
  -23.3091   20.0600  -11.4416 C   0  0  0  0  0  0  0  0  0  0  0  0
  -24.2229   20.5903   -8.8946 C   0  0  0  0  0  0  0  0  0  0  0  0
  -24.3126   19.2823  -10.9093 C   0  0  0  0  0  0  0  0  0  0  0  0
  -21.3637   18.6821  -14.8960 O   0  0  0  0  0  0  0  0  0  0  0  0
  -20.9422   18.4337  -13.7376 C   0  0  0  0  0  0  0  0  0  0  0  0
  -19.7320   17.6661  -13.5378 C   0  0  0  0  0  0  0  0  0  0  0  0
  -18.9774   16.9785  -14.4590 C   0  0  0  0  0  0  0  0  0  0  0  0
  -17.9519   16.4278  -13.7911 N   0  0  0  0  0  0  0  0  0  0  0  0
  -17.9979   16.7156  -12.5049 N   0  0  0  0  0  0  0  0  0  0  0  0
  -19.1032   17.4877  -12.3315 C   0  0  0  0  0  0  0  0  0  0  0  0
  -21.7039   18.9371  -12.6947 O   0  0  0  0  0  0  0  0  0  0  0  0
  -22.8029   19.7772  -12.8342 C   0  0  0  0  0  0  0  0  0  0  0  0
  -22.7824   21.0772  -10.7070 C   0  0  0  0  0  0  0  0  0  0  0  0
  -23.2183   21.3649   -9.4342 C   0  0  0  0  0  0  0  0  0  0  0  0
  -24.7578   19.5573   -9.6407 C   0  0  0  0  0  0  0  0  0  0  0  0
  1  3  1  0
 12  1  1  0
  1 13  2  0
  2 14  2  0
 15  2  1  0
  3 15  2  0
  5  4  2  0
  5  6  1  0
 11  5  1  0
  6  7  1  0
  6 10  2  0
  7  8  2  0
  9  8  1  0
 10  9  1  0
 11 12  1  0
 13 14  1  0
M  END
$$$$
