
     RDKit          3D

 15 16  0  0  0  0  0  0  0  0999 V2000
  -23.0582   19.6920  -11.8786 C   0  0  0  0  0  0  0  0  0  0  0  0
  -23.6398   21.2189   -9.6575 C   0  0  0  0  0  0  0  0  0  0  0  0
  -24.2961   20.2850  -11.7729 C   0  0  0  0  0  0  0  0  0  0  0  0
  -21.2613   17.6337  -15.0567 O   0  0  0  0  0  0  0  0  0  0  0  0
  -20.6414   17.9105  -13.9982 C   0  0  0  0  0  0  0  0  0  0  0  0
  -19.2515   17.5428  -13.8353 C   0  0  0  0  0  0  0  0  0  0  0  0
  -18.4124   16.9048  -14.7184 C   0  0  0  0  0  0  0  0  0  0  0  0
  -17.2216   16.7882  -14.1108 N   0  0  0  0  0  0  0  0  0  0  0  0
  -17.2403   17.3077  -12.8989 N   0  0  0  0  0  0  0  0  0  0  0  0
  -18.5002   17.7826  -12.7125 C   0  0  0  0  0  0  0  0  0  0  0  0
  -21.3706   18.5765  -13.0255 O   0  0  0  0  0  0  0  0  0  0  0  0
  -22.7312   18.8550  -13.0902 C   0  0  0  0  0  0  0  0  0  0  0  0
  -22.1402   19.8661  -10.8894 C   0  0  0  0  0  0  0  0  0  0  0  0
  -22.4023   20.6221   -9.7703 C   0  0  0  0  0  0  0  0  0  0  0  0
  -24.5721   21.0421  -10.6621 C   0  0  0  0  0  0  0  0  0  0  0  0
  1  3  1  0
 12  1  1  0
  1 13  2  0
  2 14  2  0
 15  2  1  0
  3 15  2  0
  5  4  2  0
  5  6  1  0
 11  5  1  0
  6  7  1  0
  6 10  2  0
  7  8  2  0
  9  8  1  0
 10  9  1  0
 11 12  1  0
 13 14  1  0
M  END
$$$$
