
     RDKit          3D

 15 16  0  0  0  0  0  0  0  0999 V2000
  -21.2883   18.1777  -13.1963 C   0  0  0  0  0  0  0  0  0  0  0  0
  -22.9016   20.4127  -13.2688 C   0  0  0  0  0  0  0  0  0  0  0  0
  -21.5740   18.8418  -12.0247 C   0  0  0  0  0  0  0  0  0  0  0  0
  -18.2397   15.3095  -13.4997 O   0  0  0  0  0  0  0  0  0  0  0  0
  -18.1329   16.4639  -13.9869 C   0  0  0  0  0  0  0  0  0  0  0  0
  -16.9390   16.8589  -14.7025 C   0  0  0  0  0  0  0  0  0  0  0  0
  -15.8298   16.1112  -15.0212 C   0  0  0  0  0  0  0  0  0  0  0  0
  -14.9920   16.9200  -15.6883 N   0  0  0  0  0  0  0  0  0  0  0  0
  -15.4886   18.1347  -15.8188 N   0  0  0  0  0  0  0  0  0  0  0  0
  -16.7031   18.1122  -15.2087 C   0  0  0  0  0  0  0  0  0  0  0  0
  -19.2161   17.3065  -13.7919 O   0  0  0  0  0  0  0  0  0  0  0  0
  -20.4066   16.9541  -13.1662 C   0  0  0  0  0  0  0  0  0  0  0  0
  -21.8037   18.6306  -14.3713 C   0  0  0  0  0  0  0  0  0  0  0  0
  -22.6112   19.7425  -14.4379 C   0  0  0  0  0  0  0  0  0  0  0  0
  -22.3781   19.9527  -12.0754 C   0  0  0  0  0  0  0  0  0  0  0  0
  1  3  1  0
 12  1  1  0
  1 13  2  0
  2 14  2  0
 15  2  1  0
  3 15  2  0
  5  4  2  0
  5  6  1  0
 11  5  1  0
  6  7  1  0
  6 10  2  0
  7  8  2  0
  9  8  1  0
 10  9  1  0
 11 12  1  0
 13 14  1  0
M  END
$$$$
