
     RDKit          3D

 15 16  0  0  0  0  0  0  0  0999 V2000
  -16.3460   12.6063  -24.8242 C   0  0  0  0  0  0  0  0  0  0  0  0
  -15.7302   12.1836  -27.4785 C   0  0  0  0  0  0  0  0  0  0  0  0
  -15.0525   12.7968  -25.2553 C   0  0  0  0  0  0  0  0  0  0  0  0
  -16.7595   12.4879  -20.6566 O   0  0  0  0  0  0  0  0  0  0  0  0
  -15.7874   11.9586  -21.2533 C   0  0  0  0  0  0  0  0  0  0  0  0
  -14.7924   11.2026  -20.5238 C   0  0  0  0  0  0  0  0  0  0  0  0
  -14.7531   10.8812  -19.1874 C   0  0  0  0  0  0  0  0  0  0  0  0
  -13.6330   10.1691  -18.9897 N   0  0  0  0  0  0  0  0  0  0  0  0
  -12.9519   10.0122  -20.1081 N   0  0  0  0  0  0  0  0  0  0  0  0
  -13.6628   10.6516  -21.0743 C   0  0  0  0  0  0  0  0  0  0  0  0
  -15.7422   12.1490  -22.6255 O   0  0  0  0  0  0  0  0  0  0  0  0
  -16.6920   12.8351  -23.3739 C   0  0  0  0  0  0  0  0  0  0  0  0
  -17.3012   12.2131  -25.7099 C   0  0  0  0  0  0  0  0  0  0  0  0
  -17.0232   11.9947  -27.0395 C   0  0  0  0  0  0  0  0  0  0  0  0
  -14.7601   12.5829  -26.5789 C   0  0  0  0  0  0  0  0  0  0  0  0
  1  3  1  0
 12  1  1  0
  1 13  2  0
  2 14  2  0
 15  2  1  0
  3 15  2  0
  5  4  2  0
  5  6  1  0
 11  5  1  0
  6  7  1  0
  6 10  2  0
  7  8  2  0
  9  8  1  0
 10  9  1  0
 11 12  1  0
 13 14  1  0
M  END
$$$$
