
     RDKit          3D

 79 80  0  0  0  0  0  0  0  0999 V2000
   -9.2407    1.4050   17.7590 N   0  0  0  0  0  4  0  0  0  0  0  0
   -8.1153    1.3853   16.8181 C   0  0  2  0  0  0  0  0  0  0  0  0
   -7.1256    2.4208   17.1774 C   0  0  0  0  0  0  0  0  0  0  0  0
   -7.2004    3.0688   18.2636 O   0  0  0  0  0  0  0  0  0  0  0  0
   -8.7078    1.6439   15.4344 C   0  0  0  0  0  0  0  0  0  0  0  0
   -9.7372    0.6083   15.0605 C   0  0  1  0  0  0  0  0  0  0  0  0
  -10.8593    0.6643   16.0578 C   0  0  0  0  0  0  0  0  0  0  0  0
  -10.2732    0.8962   13.6578 C   0  0  0  0  0  0  0  0  0  0  0  0
   -6.0314    2.7523   16.3391 N   0  0  0  0  0  0  0  0  0  0  0  0
   -4.8807    3.4010   16.8854 C   0  0  2  0  0  0  0  0  0  0  0  0
   -3.8560    3.6530   15.8727 C   0  0  0  0  0  0  0  0  0  0  0  0
   -3.5069    2.7024   15.0816 O   0  0  0  0  0  0  0  0  0  0  0  0
   -4.2492    2.5366   17.9891 C   0  0  0  0  0  0  0  0  0  0  0  0
   -4.2144    3.2074   19.1977 O   0  0  0  0  0  0  0  0  0  0  0  0
   -3.2080    4.8934   15.7017 N   0  0  0  0  0  0  0  0  0  0  0  0
   -2.1010    4.9702   14.7599 C   0  0  2  0  0  0  0  0  0  0  0  0
   -2.1270    3.7042   13.9857 C   0  0  0  0  0  0  0  0  0  0  0  0
   -1.8030    2.6133   14.4887 O   0  0  0  0  0  0  0  0  0  0  0  0
   -0.7860    5.1742   15.4872 C   0  0  2  0  0  0  0  0  0  0  0  0
   -0.7856    4.3898   16.6307 O   0  0  0  0  0  0  0  0  0  0  0  0
   -0.7653    6.6343   15.9116 C   0  0  0  0  0  0  0  0  0  0  0  0
   -2.5507    3.7311   12.6118 N   0  0  0  0  0  0  0  0  0  0  0  0
   -2.5971    2.5549   11.8060 C   0  0  2  0  0  0  0  0  0  0  0  0
   -3.0021    2.7740   10.4355 C   0  0  0  0  0  0  0  0  0  0  0  0
   -4.2355    3.0582   10.2383 O   0  0  0  0  0  0  0  0  0  0  0  0
   -3.6431    1.5986   12.3875 C   0  0  0  0  0  0  0  0  0  0  0  0
   -3.7563    0.2778   11.7524 C   0  0  0  0  0  0  0  0  0  0  0  0
   -4.7094   -0.6807   12.3011 C   0  0  0  0  0  0  0  0  0  0  0  0
   -5.4557   -0.3953   13.2636 O   0  0  0  0  0  0  0  0  0  0  0  0
   -4.8139   -1.9682   11.7583 O   0  0  0  0  0  0  0  0  0  0  0  0
   -2.1718    2.7151    9.2852 N   0  0  0  0  0  0  0  0  0  0  0  0
   -2.7012    3.0171    7.9898 C   0  0  2  0  0  0  0  0  0  0  0  0
   -4.0250    2.2987    7.7782 C   0  0  0  0  0  0  0  0  0  0  0  0
   -4.8242    2.2773    8.7179 O   0  0  0  0  0  0  0  0  0  0  0  0
   -1.8297    2.8844    6.8102 C   0  0  0  0  0  0  0  0  0  0  0  0
   -0.3620    2.9749    6.9664 C   0  0  1  0  0  0  0  0  0  0  0  0
    0.2610    2.6512    5.5743 C   0  0  0  0  0  0  0  0  0  0  0  0
    0.1373    4.3836    7.2527 C   0  0  0  0  0  0  0  0  0  0  0  0
   -4.2774    1.7027    6.5219 N   0  0  0  0  0  0  0  0  0  0  0  0
   -5.5637    1.3753    5.9746 C   0  0  2  0  0  0  0  0  0  0  0  0
   -6.6135    2.3333    6.3369 C   0  0  0  0  0  0  0  0  0  0  0  0
   -6.3850    3.2726    7.1857 O   0  0  0  0  0  0  0  0  0  0  0  0
   -5.9769   -0.0400    6.4808 C   0  0  0  0  0  0  0  0  0  0  0  0
   -5.2266   -0.9430    5.7420 O   0  0  0  0  0  0  0  0  0  0  0  0
   -7.9121    2.2642    5.7592 N   0  0  0  0  0  0  0  0  0  0  0  0
   -9.0003    3.0915    6.2142 C   0  0  1  0  0  0  0  0  0  0  0  0
  -10.3254    2.4445    6.0969 C   0  0  1  0  0  0  0  0  0  0  0  0
  -10.2886    1.1575    6.9810 C   0  0  0  0  0  0  0  0  0  0  0  0
  -11.3962    3.1428    6.5854 O   0  0  0  0  0  0  0  0  0  0  0  0
  -12.9046    2.5236    6.2589 P   0  0  1  0  0  5  0  0  0  0  0  0
  -13.0793    2.3080    4.5972 O   0  0  0  0  0  0  0  0  0  0  0  0
  -13.1735    1.0354    7.0306 O   0  0  0  0  0  0  0  0  0  0  0  0
  -13.9668    3.5567    6.6709 O   0  0  0  0  0  0  0  0  0  0  0  0
   -8.7461    3.9012    7.4202 C   0  0  0  0  0  0  0  0  0  0  0  0
   -9.5715    3.9368    8.3632 O   0  0  0  0  0  0  0  0  0  0  0  0
   -7.5706    4.6628    7.5672 N   0  0  0  0  0  0  0  0  0  0  0  0
   -7.4558    6.0961    7.7176 C   0  0  2  0  0  0  0  0  0  0  0  0
   -6.3944    6.5698    6.7597 C   0  0  0  0  0  0  0  0  0  0  0  0
   -5.8644    5.7116    5.9695 O   0  0  0  0  0  0  0  0  0  0  0  0
   -6.9437    6.2732    9.1607 C   0  0  0  0  0  0  0  0  0  0  0  0
   -5.4489    6.4508    9.2027 C   0  0  0  0  0  0  0  0  0  0  0  0
   -4.8733    6.6472   10.5285 C   0  0  0  0  0  0  0  0  0  0  0  0
   -4.9786    5.8638   11.4693 O   0  0  0  0  0  0  0  0  0  0  0  0
   -4.1240    7.8366   10.7836 O   0  0  0  0  0  0  0  0  0  0  0  0
   -5.9403    7.8992    6.6756 N   0  0  0  0  0  0  0  0  0  0  0  0
   -4.7967    8.5260    6.1090 C   0  0  2  0  0  0  0  0  0  0  0  0
   -3.8103    9.0766    7.0960 C   0  0  0  0  0  0  0  0  0  0  0  0
   -4.0498    9.1764    8.3153 O   0  0  0  0  0  0  0  0  0  0  0  0
   -5.4286    9.6555    5.3056 C   0  0  0  0  0  0  0  0  0  0  0  0
   -6.7767    9.9298    5.9719 C   0  0  0  0  0  0  0  0  0  0  0  0
   -6.7207    9.0394    7.2079 C   0  0  0  0  0  0  0  0  0  0  0  0
   -2.5483    9.5010    6.6255 N   0  0  0  0  0  0  0  0  0  0  0  0
   -1.3984    9.8520    7.4024 C   0  0  2  0  0  0  0  0  0  0  0  0
   -1.2541   11.3089    7.4131 C   0  0  0  0  0  0  0  0  0  0  0  0
   -2.1569   12.1286    6.7626 O   0  0  0  0  0  0  0  0  0  0  0  0
   -0.2324    9.2828    6.5983 C   0  0  0  0  0  0  0  0  0  0  0  0
   -0.7210    9.2225    5.1767 C   0  0  0  0  0  0  0  0  0  0  0  0
   -2.1848    9.6424    5.2323 C   0  0  0  0  0  0  0  0  0  0  0  0
   -0.2992   11.9058    8.0166 O   0  0  0  0  0  0  0  0  0  0  0  0
  2  1  1  1
  2  3  1  0
  2  5  1  0
  3  4  2  0
  3  9  1  0
  5  6  1  0
  6  7  1  1
  6  8  1  0
  9 10  1  0
 10 11  1  0
 10 13  1  1
 11 12  2  0
 11 15  1  0
 13 14  1  0
 16 15  1  1
 16 17  1  0
 16 19  1  0
 17 18  2  0
 17 22  1  0
 19 20  1  0
 19 21  1  1
 22 23  1  0
 23 24  1  0
 23 26  1  1
 24 25  2  0
 24 31  1  0
 26 27  1  0
 27 28  1  0
 28 29  2  0
 28 30  1  0
 31 32  1  0
 32 33  1  0
 32 35  1  6
 33 34  2  0
 33 39  1  0
 35 36  1  0
 36 37  1  6
 36 38  1  0
 39 40  1  0
 40 41  1  0
 40 43  1  1
 41 42  2  0
 41 45  1  0
 43 44  1  0
 46 45  1  1
 46 47  1  0
 46 54  1  0
 47 48  1  1
 47 49  1  0
 49 50  1  0
 50 51  1  6
 50 52  1  0
 50 53  2  0
 54 55  2  0
 54 56  1  0
 56 57  1  0
 57 58  1  0
 57 60  1  1
 58 59  2  0
 58 65  1  0
 60 61  1  0
 61 62  1  0
 62 63  2  0
 62 64  1  0
 65 66  1  0
 65 71  1  0
 66 67  1  1
 66 69  1  0
 67 68  2  0
 67 72  1  0
 69 70  1  0
 70 71  1  0
 72 73  1  0
 72 78  1  0
 73 74  1  6
 73 76  1  0
 74 75  1  0
 74 79  2  0
 76 77  1  0
 77 78  1  0
M  CHG  1   1   1
M  END
$$$$
