
     RDKit          3D

 79 80  0  0  0  0  0  0  0  0999 V2000
  -13.6004    2.2704    0.6471 N   0  0  0  0  0  4  0  0  0  0  0  0
  -12.9863    2.5218    1.9554 C   0  0  2  0  0  0  0  0  0  0  0  0
  -11.9211    1.5343    2.2225 C   0  0  0  0  0  0  0  0  0  0  0  0
  -11.8627    0.4302    1.6038 O   0  0  0  0  0  0  0  0  0  0  0  0
  -14.1094    2.4148    2.9848 C   0  0  0  0  0  0  0  0  0  0  0  0
  -13.6111    2.6496    4.3878 C   0  0  1  0  0  0  0  0  0  0  0  0
  -13.0811    4.0523    4.4810 C   0  0  0  0  0  0  0  0  0  0  0  0
  -14.7576    2.4597    5.3814 C   0  0  0  0  0  0  0  0  0  0  0  0
  -10.8981    1.7570    3.1783 N   0  0  0  0  0  0  0  0  0  0  0  0
   -9.7992    0.8481    3.2771 C   0  0  2  0  0  0  0  0  0  0  0  0
   -8.8583    1.2314    4.3292 C   0  0  0  0  0  0  0  0  0  0  0  0
   -8.6450    2.4778    4.5581 O   0  0  0  0  0  0  0  0  0  0  0  0
   -9.0249    0.7941    1.9499 C   0  0  0  0  0  0  0  0  0  0  0  0
   -7.8960    0.0027    2.0560 O   0  0  0  0  0  0  0  0  0  0  0  0
   -8.1511    0.3080    5.1260 N   0  0  0  0  0  0  0  0  0  0  0  0
   -7.4665    0.8012    6.3119 C   0  0  2  0  0  0  0  0  0  0  0  0
   -6.2475    1.4959    5.8278 C   0  0  0  0  0  0  0  0  0  0  0  0
   -5.7914    1.3141    4.6846 O   0  0  0  0  0  0  0  0  0  0  0  0
   -7.1432   -0.3361    7.2614 C   0  0  2  0  0  0  0  0  0  0  0  0
   -6.4651   -1.3209    6.5589 O   0  0  0  0  0  0  0  0  0  0  0  0
   -8.4825   -0.9041    7.7044 C   0  0  0  0  0  0  0  0  0  0  0  0
   -5.5734    2.4191    6.7002 N   0  0  0  0  0  0  0  0  0  0  0  0
   -4.4106    3.1391    6.2950 C   0  0  2  0  0  0  0  0  0  0  0  0
   -3.5631    3.5826    7.3792 C   0  0  0  0  0  0  0  0  0  0  0  0
   -4.1486    3.9093    8.4707 O   0  0  0  0  0  0  0  0  0  0  0  0
   -4.8477    4.4191    5.5757 C   0  0  0  0  0  0  0  0  0  0  0  0
   -5.7220    4.2537    4.4057 C   0  0  0  0  0  0  0  0  0  0  0  0
   -6.0285    5.4256    3.5928 C   0  0  0  0  0  0  0  0  0  0  0  0
   -6.1261    6.5693    4.0900 O   0  0  0  0  0  0  0  0  0  0  0  0
   -6.2281    5.2992    2.2117 O   0  0  0  0  0  0  0  0  0  0  0  0
   -2.1470    3.6853    7.3624 N   0  0  0  0  0  0  0  0  0  0  0  0
   -1.4793    4.6653    8.1644 C   0  0  2  0  0  0  0  0  0  0  0  0
   -2.4763    5.3860    9.0589 C   0  0  0  0  0  0  0  0  0  0  0  0
   -2.8480    6.5112    8.7155 O   0  0  0  0  0  0  0  0  0  0  0  0
   -0.5610    5.6171    7.5169 C   0  0  0  0  0  0  0  0  0  0  0  0
    0.3741    5.1430    6.4741 C   0  0  1  0  0  0  0  0  0  0  0  0
    1.0671    6.4073    5.8805 C   0  0  0  0  0  0  0  0  0  0  0  0
    1.5395    4.3311    7.0203 C   0  0  0  0  0  0  0  0  0  0  0  0
   -2.9321    4.7332   10.2264 N   0  0  0  0  0  0  0  0  0  0  0  0
   -3.2496    5.3518   11.4825 C   0  0  2  0  0  0  0  0  0  0  0  0
   -2.0989    5.9973   12.1229 C   0  0  0  0  0  0  0  0  0  0  0  0
   -1.4742    5.4232   13.0900 O   0  0  0  0  0  0  0  0  0  0  0  0
   -3.8180    4.2655   12.4453 C   0  0  0  0  0  0  0  0  0  0  0  0
   -4.1911    4.9375   13.6001 O   0  0  0  0  0  0  0  0  0  0  0  0
   -1.6291    7.2703   11.6943 N   0  0  0  0  0  0  0  0  0  0  0  0
   -0.4795    7.9046   12.2874 C   0  0  1  0  0  0  0  0  0  0  0  0
   -0.0244    9.1079   11.5573 C   0  0  1  0  0  0  0  0  0  0  0  0
    0.8497    8.6162   10.3599 C   0  0  0  0  0  0  0  0  0  0  0  0
   -0.9932    9.8683   10.9605 O   0  0  0  0  0  0  0  0  0  0  0  0
   -1.1701    9.6981    9.3158 P   0  0  1  0  0  5  0  0  0  0  0  0
   -0.0317   10.6541    8.5232 O   0  0  0  0  0  0  0  0  0  0  0  0
   -0.9764    8.0897    8.8078 O   0  0  0  0  0  0  0  0  0  0  0  0
   -2.5482   10.2428    8.9043 O   0  0  0  0  0  0  0  0  0  0  0  0
   -0.4474    7.9537   13.7610 C   0  0  0  0  0  0  0  0  0  0  0  0
    0.6345    7.8727   14.3891 O   0  0  0  0  0  0  0  0  0  0  0  0
   -1.6230    8.0965   14.5233 N   0  0  0  0  0  0  0  0  0  0  0  0
   -1.7346    8.3131   15.9484 C   0  0  2  0  0  0  0  0  0  0  0  0
   -2.0114    6.9790   16.5903 C   0  0  0  0  0  0  0  0  0  0  0  0
   -2.2278    5.9725   15.8273 O   0  0  0  0  0  0  0  0  0  0  0  0
   -2.9845    9.2047   16.0866 C   0  0  0  0  0  0  0  0  0  0  0  0
   -4.2098    8.5366   15.5210 C   0  0  0  0  0  0  0  0  0  0  0  0
   -5.4369    9.3238   15.5681 C   0  0  0  0  0  0  0  0  0  0  0  0
   -6.4222    9.0589   16.2527 O   0  0  0  0  0  0  0  0  0  0  0  0
   -5.5302   10.5006   14.7632 O   0  0  0  0  0  0  0  0  0  0  0  0
   -2.0518    6.7624   17.9802 N   0  0  0  0  0  0  0  0  0  0  0  0
   -2.0726    5.6056   18.8067 C   0  0  2  0  0  0  0  0  0  0  0  0
   -3.3679    5.3470   19.5179 C   0  0  0  0  0  0  0  0  0  0  0  0
   -3.9927    6.2297   20.1382 O   0  0  0  0  0  0  0  0  0  0  0  0
   -0.9714    5.9221   19.8105 C   0  0  0  0  0  0  0  0  0  0  0  0
   -0.8611    7.4465   19.8329 C   0  0  0  0  0  0  0  0  0  0  0  0
   -2.0333    7.8747   18.9574 C   0  0  0  0  0  0  0  0  0  0  0  0
   -3.9096    4.0434   19.4835 N   0  0  0  0  0  0  0  0  0  0  0  0
   -5.2861    3.6654   19.5911 C   0  0  2  0  0  0  0  0  0  0  0  0
   -5.5301    3.1213   20.9283 C   0  0  0  0  0  0  0  0  0  0  0  0
   -4.5410    3.1070   21.8934 O   0  0  0  0  0  0  0  0  0  0  0  0
   -5.4229    2.5150   18.5972 C   0  0  0  0  0  0  0  0  0  0  0  0
   -4.0442    1.9248   18.4790 C   0  0  0  0  0  0  0  0  0  0  0  0
   -3.1428    2.8286   19.3113 C   0  0  0  0  0  0  0  0  0  0  0  0
   -6.6567    2.6338   21.2824 O   0  0  0  0  0  0  0  0  0  0  0  0
  2  1  1  6
  2  3  1  0
  2  5  1  0
  3  4  2  0
  3  9  1  0
  5  6  1  0
  6  7  1  6
  6  8  1  0
  9 10  1  0
 10 11  1  0
 10 13  1  6
 11 12  2  0
 11 15  1  0
 13 14  1  0
 16 15  1  6
 16 17  1  0
 16 19  1  0
 17 18  2  0
 17 22  1  0
 19 20  1  0
 19 21  1  6
 22 23  1  0
 23 24  1  0
 23 26  1  1
 24 25  2  0
 24 31  1  0
 26 27  1  0
 27 28  1  0
 28 29  2  0
 28 30  1  0
 31 32  1  0
 32 33  1  0
 32 35  1  6
 33 34  2  0
 33 39  1  0
 35 36  1  0
 36 37  1  1
 36 38  1  0
 39 40  1  0
 40 41  1  0
 40 43  1  1
 41 42  2  0
 41 45  1  0
 43 44  1  0
 46 45  1  1
 46 47  1  0
 46 54  1  0
 47 48  1  6
 47 49  1  0
 49 50  1  0
 50 51  1  6
 50 52  1  0
 50 53  2  0
 54 55  2  0
 54 56  1  0
 56 57  1  0
 57 58  1  0
 57 60  1  6
 58 59  2  0
 58 65  1  0
 60 61  1  0
 61 62  1  0
 62 63  2  0
 62 64  1  0
 65 66  1  0
 65 71  1  0
 66 67  1  1
 66 69  1  0
 67 68  2  0
 67 72  1  0
 69 70  1  0
 70 71  1  0
 72 73  1  0
 72 78  1  0
 73 74  1  1
 73 76  1  0
 74 75  1  0
 74 79  2  0
 76 77  1  0
 77 78  1  0
M  CHG  1   1   1
M  END
$$$$
