
     RDKit          3D

 79 80  0  0  0  0  0  0  0  0999 V2000
  -14.7973   -3.1214   15.1102 N   0  0  0  0  0  4  0  0  0  0  0  0
  -14.0128   -3.1070   13.8706 C   0  0  2  0  0  0  0  0  0  0  0  0
  -12.8456   -4.0038   13.9895 C   0  0  0  0  0  0  0  0  0  0  0  0
  -11.8494   -3.7117   14.7160 O   0  0  0  0  0  0  0  0  0  0  0  0
  -13.5774   -1.6591   13.6548 C   0  0  0  0  0  0  0  0  0  0  0  0
  -12.3079   -1.3361   14.4006 C   0  0  1  0  0  0  0  0  0  0  0  0
  -12.6597   -0.9847   15.8182 C   0  0  0  0  0  0  0  0  0  0  0  0
  -11.3753   -2.5475   14.3810 C   0  0  0  0  0  0  0  0  0  0  0  0
  -12.7651   -5.2440   13.3074 N   0  0  0  0  0  0  0  0  0  0  0  0
  -11.5521   -5.9999   13.3353 C   0  0  2  0  0  0  0  0  0  0  0  0
  -10.4922   -5.3726   12.5466 C   0  0  0  0  0  0  0  0  0  0  0  0
  -10.7538   -4.9590   11.3584 O   0  0  0  0  0  0  0  0  0  0  0  0
  -11.7851   -7.4116   12.7722 C   0  0  0  0  0  0  0  0  0  0  0  0
  -13.0315   -7.8959   13.1239 O   0  0  0  0  0  0  0  0  0  0  0  0
   -9.1730   -5.1881   13.0085 N   0  0  0  0  0  0  0  0  0  0  0  0
   -8.1595   -4.7656   12.0531 C   0  0  2  0  0  0  0  0  0  0  0  0
   -8.0028   -3.3010   12.2358 C   0  0  0  0  0  0  0  0  0  0  0  0
   -8.8547   -2.4884   11.8335 O   0  0  0  0  0  0  0  0  0  0  0  0
   -8.5655   -5.1299   10.6382 C   0  0  2  0  0  0  0  0  0  0  0  0
   -8.4766   -6.5060   10.4918 O   0  0  0  0  0  0  0  0  0  0  0  0
   -7.5311   -4.4866    9.7279 C   0  0  0  0  0  0  0  0  0  0  0  0
   -6.8354   -2.7993   12.9092 N   0  0  0  0  0  0  0  0  0  0  0  0
   -6.5573   -1.4042   13.0140 C   0  0  2  0  0  0  0  0  0  0  0  0
   -5.5996   -0.9026   12.0540 C   0  0  0  0  0  0  0  0  0  0  0  0
   -5.0820   -1.7603   11.2557 O   0  0  0  0  0  0  0  0  0  0  0  0
   -5.9360   -1.1259   14.3864 C   0  0  0  0  0  0  0  0  0  0  0  0
   -6.8652   -0.9923   15.5175 C   0  0  0  0  0  0  0  0  0  0  0  0
   -6.9139    0.2775   16.2340 C   0  0  0  0  0  0  0  0  0  0  0  0
   -7.5789    0.4204   17.2838 O   0  0  0  0  0  0  0  0  0  0  0  0
   -6.2084    1.3898   15.7562 O   0  0  0  0  0  0  0  0  0  0  0  0
   -5.1793    0.4447   11.8986 N   0  0  0  0  0  0  0  0  0  0  0  0
   -5.2689    1.0922   10.6250 C   0  0  2  0  0  0  0  0  0  0  0  0
   -5.0278    2.5867   10.7728 C   0  0  0  0  0  0  0  0  0  0  0  0
   -5.9308    3.2689   11.2640 O   0  0  0  0  0  0  0  0  0  0  0  0
   -6.4334    0.8240    9.7645 C   0  0  0  0  0  0  0  0  0  0  0  0
   -6.3132   -0.1296    8.6407 C   0  0  1  0  0  0  0  0  0  0  0  0
   -7.5967    0.0337    7.7708 C   0  0  0  0  0  0  0  0  0  0  0  0
   -5.1898    0.2060    7.6708 C   0  0  0  0  0  0  0  0  0  0  0  0
   -3.7870    3.1161   10.3517 N   0  0  0  0  0  0  0  0  0  0  0  0
   -3.2405    4.3961   10.7042 C   0  0  2  0  0  0  0  0  0  0  0  0
   -3.2302    5.3529    9.5927 C   0  0  0  0  0  0  0  0  0  0  0  0
   -3.9001    6.4491    9.6596 O   0  0  0  0  0  0  0  0  0  0  0  0
   -1.7793    4.1941   11.2084 C   0  0  0  0  0  0  0  0  0  0  0  0
   -1.0628    5.2894   10.7487 O   0  0  0  0  0  0  0  0  0  0  0  0
   -2.4761    5.1087    8.4109 N   0  0  0  0  0  0  0  0  0  0  0  0
   -1.9178    6.1768    7.6214 C   0  0  1  0  0  0  0  0  0  0  0  0
   -0.6009    5.8514    7.0315 C   0  0  1  0  0  0  0  0  0  0  0  0
   -0.5842    4.3126    6.7646 C   0  0  0  0  0  0  0  0  0  0  0  0
   -0.3241    6.3958    5.8068 O   0  0  0  0  0  0  0  0  0  0  0  0
    0.5374    5.4493    4.7451 P   0  0  1  0  0  5  0  0  0  0  0  0
   -0.1511    3.9135    4.6707 O   0  0  0  0  0  0  0  0  0  0  0  0
    0.5747    6.1040    3.1790 O   0  0  0  0  0  0  0  0  0  0  0  0
    1.9609    5.2546    5.2939 O   0  0  0  0  0  0  0  0  0  0  0  0
   -2.8659    6.9361    6.7850 C   0  0  0  0  0  0  0  0  0  0  0  0
   -3.1379    8.1337    7.0371 O   0  0  0  0  0  0  0  0  0  0  0  0
   -3.5011    6.3545    5.6707 N   0  0  0  0  0  0  0  0  0  0  0  0
   -4.6999    6.8039    4.9990 C   0  0  2  0  0  0  0  0  0  0  0  0
   -5.2542    7.9625    5.7858 C   0  0  0  0  0  0  0  0  0  0  0  0
   -4.8379    8.1350    6.9854 O   0  0  0  0  0  0  0  0  0  0  0  0
   -5.6618    5.6061    5.1257 C   0  0  0  0  0  0  0  0  0  0  0  0
   -5.6535    4.7523    3.8853 C   0  0  0  0  0  0  0  0  0  0  0  0
   -6.6954    3.7341    3.8125 C   0  0  0  0  0  0  0  0  0  0  0  0
   -7.5584    3.5417    4.6658 O   0  0  0  0  0  0  0  0  0  0  0  0
   -6.7398    2.8760    2.6710 O   0  0  0  0  0  0  0  0  0  0  0  0
   -6.2068    8.8722    5.2906 N   0  0  0  0  0  0  0  0  0  0  0  0
   -6.8712   10.0084    5.8284 C   0  0  2  0  0  0  0  0  0  0  0  0
   -8.3357    9.8281    6.0993 C   0  0  0  0  0  0  0  0  0  0  0  0
   -9.0892    9.1665    5.3587 O   0  0  0  0  0  0  0  0  0  0  0  0
   -6.6594   11.0408    4.7285 C   0  0  0  0  0  0  0  0  0  0  0  0
   -6.4417   10.2372    3.4466 C   0  0  0  0  0  0  0  0  0  0  0  0
   -6.7177    8.8088    3.9022 C   0  0  0  0  0  0  0  0  0  0  0  0
   -8.8902   10.4334    7.2483 N   0  0  0  0  0  0  0  0  0  0  0  0
  -10.0451   10.0173    7.9847 C   0  0  2  0  0  0  0  0  0  0  0  0
  -11.1620   10.9093    7.6680 C   0  0  0  0  0  0  0  0  0  0  0  0
  -11.0169   11.9625    6.7850 O   0  0  0  0  0  0  0  0  0  0  0  0
   -9.6560   10.2701    9.4389 C   0  0  0  0  0  0  0  0  0  0  0  0
   -8.6180   11.3580    9.3899 C   0  0  0  0  0  0  0  0  0  0  0  0
   -8.3592   11.6060    7.9088 C   0  0  0  0  0  0  0  0  0  0  0  0
  -12.3247   10.7716    8.1795 O   0  0  0  0  0  0  0  0  0  0  0  0
  2  1  1  1
  2  3  1  0
  2  5  1  0
  3  4  2  0
  3  9  1  0
  5  6  1  0
  6  7  1  1
  6  8  1  0
  9 10  1  0
 10 11  1  0
 10 13  1  6
 11 12  2  0
 11 15  1  0
 13 14  1  0
 16 15  1  1
 16 17  1  0
 16 19  1  0
 17 18  2  0
 17 22  1  0
 19 20  1  0
 19 21  1  6
 22 23  1  0
 23 24  1  0
 23 26  1  1
 24 25  2  0
 24 31  1  0
 26 27  1  0
 27 28  1  0
 28 29  2  0
 28 30  1  0
 31 32  1  0
 32 33  1  0
 32 35  1  1
 33 34  2  0
 33 39  1  0
 35 36  1  0
 36 37  1  6
 36 38  1  0
 39 40  1  0
 40 41  1  0
 40 43  1  6
 41 42  2  0
 41 45  1  0
 43 44  1  0
 46 45  1  6
 46 47  1  0
 46 54  1  0
 47 48  1  6
 47 49  1  0
 49 50  1  0
 50 51  1  6
 50 52  1  0
 50 53  2  0
 54 55  2  0
 54 56  1  0
 56 57  1  0
 57 58  1  0
 57 60  1  1
 58 59  2  0
 58 65  1  0
 60 61  1  0
 61 62  1  0
 62 63  2  0
 62 64  1  0
 65 66  1  0
 65 71  1  0
 66 67  1  6
 66 69  1  0
 67 68  2  0
 67 72  1  0
 69 70  1  0
 70 71  1  0
 72 73  1  0
 72 78  1  0
 73 74  1  6
 73 76  1  0
 74 75  1  0
 74 79  2  0
 76 77  1  0
 77 78  1  0
M  CHG  1   1   1
M  END
$$$$
