
     RDKit          3D

 79 80  0  0  0  0  0  0  0  0999 V2000
    3.2113    7.5979   18.4409 N   0  0  0  0  0  4  0  0  0  0  0  0
    2.6503    6.6314   17.4905 C   0  0  2  0  0  0  0  0  0  0  0  0
    2.3593    7.2877   16.2000 C   0  0  0  0  0  0  0  0  0  0  0  0
    1.9946    8.4993   16.1334 O   0  0  0  0  0  0  0  0  0  0  0  0
    1.3762    6.0871   18.1331 C   0  0  0  0  0  0  0  0  0  0  0  0
    0.7754    4.9634   17.3278 C   0  0  1  0  0  0  0  0  0  0  0  0
   -0.4231    4.4333   18.0622 C   0  0  0  0  0  0  0  0  0  0  0  0
    0.3553    5.4816   15.9521 C   0  0  0  0  0  0  0  0  0  0  0  0
    2.4727    6.6118   14.9589 N   0  0  0  0  0  0  0  0  0  0  0  0
    2.2987    7.3282   13.7341 C   0  0  2  0  0  0  0  0  0  0  0  0
    0.9432    7.8591   13.5928 C   0  0  0  0  0  0  0  0  0  0  0  0
   -0.0600    7.0973   13.8472 O   0  0  0  0  0  0  0  0  0  0  0  0
    2.5727    6.4110   12.5309 C   0  0  0  0  0  0  0  0  0  0  0  0
    2.4202    7.0882   11.3350 O   0  0  0  0  0  0  0  0  0  0  0  0
    0.6539    9.1775   13.1855 N   0  0  0  0  0  0  0  0  0  0  0  0
   -0.7418    9.5706   13.0586 C   0  0  2  0  0  0  0  0  0  0  0  0
   -1.1329    9.2646   11.6599 C   0  0  0  0  0  0  0  0  0  0  0  0
   -0.2933    9.1300   10.7517 O   0  0  0  0  0  0  0  0  0  0  0  0
   -0.9233   11.0368   13.4004 C   0  0  2  0  0  0  0  0  0  0  0  0
    0.1281   11.7539   12.8498 O   0  0  0  0  0  0  0  0  0  0  0  0
   -0.8207   11.1287   14.9148 C   0  0  0  0  0  0  0  0  0  0  0  0
   -2.5259    9.1062   11.3401 N   0  0  0  0  0  0  0  0  0  0  0  0
   -2.9851    8.9359   10.0003 C   0  0  2  0  0  0  0  0  0  0  0  0
   -2.6981    7.6431    9.4202 C   0  0  0  0  0  0  0  0  0  0  0  0
   -1.7687    6.9573    9.9742 O   0  0  0  0  0  0  0  0  0  0  0  0
   -2.2703    9.9491    9.1006 C   0  0  0  0  0  0  0  0  0  0  0  0
   -2.6787    9.9828    7.6889 C   0  0  0  0  0  0  0  0  0  0  0  0
   -3.6562   10.9810    7.2693 C   0  0  0  0  0  0  0  0  0  0  0  0
   -4.8411   10.6780    7.0067 O   0  0  0  0  0  0  0  0  0  0  0  0
   -3.2875   12.3270    7.1440 O   0  0  0  0  0  0  0  0  0  0  0  0
   -3.3461    7.0505    8.3044 N   0  0  0  0  0  0  0  0  0  0  0  0
   -3.8416    5.7095    8.3788 C   0  0  2  0  0  0  0  0  0  0  0  0
   -4.8070    5.4375    7.2353 C   0  0  0  0  0  0  0  0  0  0  0  0
   -4.5391    5.9168    6.1305 O   0  0  0  0  0  0  0  0  0  0  0  0
   -4.3783    5.2132    9.6572 C   0  0  0  0  0  0  0  0  0  0  0  0
   -3.4524    4.7488   10.7126 C   0  0  1  0  0  0  0  0  0  0  0  0
   -3.7983    3.2542   10.9909 C   0  0  0  0  0  0  0  0  0  0  0  0
   -1.9977    4.6931   10.2695 C   0  0  0  0  0  0  0  0  0  0  0  0
   -5.9508    4.6474    7.4897 N   0  0  0  0  0  0  0  0  0  0  0  0
   -6.9688    4.2883    6.5432 C   0  0  2  0  0  0  0  0  0  0  0  0
   -7.9526    3.3398    7.0755 C   0  0  0  0  0  0  0  0  0  0  0  0
   -8.9337    2.9306    6.3509 O   0  0  0  0  0  0  0  0  0  0  0  0
   -6.2873    3.6576    5.2911 C   0  0  0  0  0  0  0  0  0  0  0  0
   -5.9550    4.7194    4.4627 O   0  0  0  0  0  0  0  0  0  0  0  0
   -7.8530    2.8339    8.4018 N   0  0  0  0  0  0  0  0  0  0  0  0
   -8.8330    1.9356    8.9571 C   0  0  1  0  0  0  0  0  0  0  0  0
   -9.7191    2.5705    9.9570 C   0  0  1  0  0  0  0  0  0  0  0  0
   -8.8752    3.6583   10.6946 C   0  0  0  0  0  0  0  0  0  0  0  0
  -10.7933    3.2666    9.4730 O   0  0  0  0  0  0  0  0  0  0  0  0
  -11.5318    4.3258   10.5209 P   0  0  1  0  0  5  0  0  0  0  0  0
  -12.8685    5.0239    9.7699 O   0  0  0  0  0  0  0  0  0  0  0  0
  -12.0465    3.5678   11.9503 O   0  0  0  0  0  0  0  0  0  0  0  0
  -10.5621    5.4793   10.8284 O   0  0  0  0  0  0  0  0  0  0  0  0
   -9.4468    0.9770    8.0195 C   0  0  0  0  0  0  0  0  0  0  0  0
   -8.9452    0.7622    6.8907 O   0  0  0  0  0  0  0  0  0  0  0  0
  -10.6144    0.2620    8.3495 N   0  0  0  0  0  0  0  0  0  0  0  0
  -10.7763   -1.1707    8.4558 C   0  0  2  0  0  0  0  0  0  0  0  0
  -10.5087   -1.5530    9.8879 C   0  0  0  0  0  0  0  0  0  0  0  0
   -9.6735   -0.8487   10.5574 O   0  0  0  0  0  0  0  0  0  0  0  0
   -9.6491   -1.7338    7.5678 C   0  0  0  0  0  0  0  0  0  0  0  0
   -9.4122   -0.8716    6.3561 C   0  0  0  0  0  0  0  0  0  0  0  0
   -8.1698   -1.1237    5.6347 C   0  0  0  0  0  0  0  0  0  0  0  0
   -7.3241   -1.9572    5.9508 O   0  0  0  0  0  0  0  0  0  0  0  0
   -7.8855   -0.3542    4.4650 O   0  0  0  0  0  0  0  0  0  0  0  0
  -11.1156   -2.6403   10.5437 N   0  0  0  0  0  0  0  0  0  0  0  0
  -11.0232   -3.1910   11.8513 C   0  0  2  0  0  0  0  0  0  0  0  0
  -10.3437   -4.5255   11.9401 C   0  0  0  0  0  0  0  0  0  0  0  0
  -10.5385   -5.4452   11.1213 O   0  0  0  0  0  0  0  0  0  0  0  0
  -12.4909   -3.3173   12.2388 C   0  0  0  0  0  0  0  0  0  0  0  0
  -13.2584   -3.4054   10.9198 C   0  0  0  0  0  0  0  0  0  0  0  0
  -12.1367   -3.4909    9.8910 C   0  0  0  0  0  0  0  0  0  0  0  0
   -9.4377   -4.7538   12.9989 N   0  0  0  0  0  0  0  0  0  0  0  0
   -8.4730   -5.8052   13.1129 C   0  0  2  0  0  0  0  0  0  0  0  0
   -8.9618   -6.8022   14.0673 C   0  0  0  0  0  0  0  0  0  0  0  0
  -10.2635   -6.7804   14.5310 O   0  0  0  0  0  0  0  0  0  0  0  0
   -7.2652   -5.1194   13.7462 C   0  0  0  0  0  0  0  0  0  0  0  0
   -7.8252   -3.9462   14.5033 C   0  0  0  0  0  0  0  0  0  0  0  0
   -9.3144   -3.9278   14.1804 C   0  0  0  0  0  0  0  0  0  0  0  0
   -8.2267   -7.7422   14.5239 O   0  0  0  0  0  0  0  0  0  0  0  0
  2  1  1  1
  2  3  1  0
  2  5  1  0
  3  4  2  0
  3  9  1  0
  5  6  1  0
  6  7  1  1
  6  8  1  0
  9 10  1  0
 10 11  1  0
 10 13  1  6
 11 12  2  0
 11 15  1  0
 13 14  1  0
 16 15  1  6
 16 17  1  0
 16 19  1  0
 17 18  2  0
 17 22  1  0
 19 20  1  0
 19 21  1  1
 22 23  1  0
 23 24  1  0
 23 26  1  6
 24 25  2  0
 24 31  1  0
 26 27  1  0
 27 28  1  0
 28 29  2  0
 28 30  1  0
 31 32  1  0
 32 33  1  0
 32 35  1  1
 33 34  2  0
 33 39  1  0
 35 36  1  0
 36 37  1  6
 36 38  1  0
 39 40  1  0
 40 41  1  0
 40 43  1  6
 41 42  2  0
 41 45  1  0
 43 44  1  0
 46 45  1  6
 46 47  1  0
 46 54  1  0
 47 48  1  6
 47 49  1  0
 49 50  1  0
 50 51  1  6
 50 52  1  0
 50 53  2  0
 54 55  2  0
 54 56  1  0
 56 57  1  0
 57 58  1  0
 57 60  1  6
 58 59  2  0
 58 65  1  0
 60 61  1  0
 61 62  1  0
 62 63  2  0
 62 64  1  0
 65 66  1  0
 65 71  1  0
 66 67  1  6
 66 69  1  0
 67 68  2  0
 67 72  1  0
 69 70  1  0
 70 71  1  0
 72 73  1  0
 72 78  1  0
 73 74  1  1
 73 76  1  0
 74 75  1  0
 74 79  2  0
 76 77  1  0
 77 78  1  0
M  CHG  1   1   1
M  END
$$$$
