
     RDKit          3D

 79 80  0  0  0  0  0  0  0  0999 V2000
   -2.4676   -0.6277   24.1608 N   0  0  0  0  0  4  0  0  0  0  0  0
   -3.7383   -1.0980   23.5985 C   0  0  2  0  0  0  0  0  0  0  0  0
   -3.7170   -1.0000   22.1251 C   0  0  0  0  0  0  0  0  0  0  0  0
   -2.9948   -0.1515   21.5220 O   0  0  0  0  0  0  0  0  0  0  0  0
   -4.8273   -0.2091   24.1955 C   0  0  0  0  0  0  0  0  0  0  0  0
   -4.9494   -0.3932   25.6866 C   0  0  1  0  0  0  0  0  0  0  0  0
   -6.2976    0.1051   26.1235 C   0  0  0  0  0  0  0  0  0  0  0  0
   -4.8034   -1.8742   26.0375 C   0  0  0  0  0  0  0  0  0  0  0  0
   -4.4939   -1.8460   21.2941 N   0  0  0  0  0  0  0  0  0  0  0  0
   -4.3977   -1.7383   19.8719 C   0  0  2  0  0  0  0  0  0  0  0  0
   -5.0440   -0.5283   19.3647 C   0  0  0  0  0  0  0  0  0  0  0  0
   -6.2098   -0.2085   19.8006 O   0  0  0  0  0  0  0  0  0  0  0  0
   -5.0643   -2.9471   19.1946 C   0  0  0  0  0  0  0  0  0  0  0  0
   -6.0578   -3.4871   19.9904 O   0  0  0  0  0  0  0  0  0  0  0  0
   -4.4651    0.3299   18.4075 N   0  0  0  0  0  0  0  0  0  0  0  0
   -5.2537    1.4514   17.9189 C   0  0  2  0  0  0  0  0  0  0  0  0
   -6.2727    0.8751   17.0065 C   0  0  0  0  0  0  0  0  0  0  0  0
   -6.6951   -0.2880   17.1354 O   0  0  0  0  0  0  0  0  0  0  0  0
   -4.3709    2.4715   17.2263 C   0  0  2  0  0  0  0  0  0  0  0  0
   -3.7531    1.8618   16.1449 O   0  0  0  0  0  0  0  0  0  0  0  0
   -3.2985    2.8500   18.2359 C   0  0  0  0  0  0  0  0  0  0  0  0
   -6.8012    1.6867   15.9435 N   0  0  0  0  0  0  0  0  0  0  0  0
   -7.8410    1.2290   15.0808 C   0  0  2  0  0  0  0  0  0  0  0  0
   -7.4003    0.3791   13.9974 C   0  0  0  0  0  0  0  0  0  0  0  0
   -7.0875   -0.8253   14.3015 O   0  0  0  0  0  0  0  0  0  0  0  0
   -8.4906    2.4403   14.4043 C   0  0  0  0  0  0  0  0  0  0  0  0
   -9.6598    2.1740   13.5541 C   0  0  0  0  0  0  0  0  0  0  0  0
  -10.8360    3.0247   13.6992 C   0  0  0  0  0  0  0  0  0  0  0  0
  -10.7430    4.2631   13.8500 O   0  0  0  0  0  0  0  0  0  0  0  0
  -12.1217    2.4683   13.6766 O   0  0  0  0  0  0  0  0  0  0  0  0
   -7.2866    0.7388   12.6286 N   0  0  0  0  0  0  0  0  0  0  0  0
   -6.8987   -0.2325   11.6511 C   0  0  2  0  0  0  0  0  0  0  0  0
   -6.8940    0.3870   10.2619 C   0  0  0  0  0  0  0  0  0  0  0  0
   -7.9803    0.5422    9.6980 O   0  0  0  0  0  0  0  0  0  0  0  0
   -7.5615   -1.5475   11.6446 C   0  0  0  0  0  0  0  0  0  0  0  0
   -6.8151   -2.7449   11.2018 C   0  0  1  0  0  0  0  0  0  0  0  0
   -7.8755   -3.8207   10.8156 C   0  0  0  0  0  0  0  0  0  0  0  0
   -6.0401   -2.5394    9.9084 C   0  0  0  0  0  0  0  0  0  0  0  0
   -5.6557    0.7602    9.6925 N   0  0  0  0  0  0  0  0  0  0  0  0
   -5.4391    1.2362    8.3554 C   0  0  2  0  0  0  0  0  0  0  0  0
   -6.6470    1.7806    7.7264 C   0  0  0  0  0  0  0  0  0  0  0  0
   -7.8167    1.4161    8.1190 O   0  0  0  0  0  0  0  0  0  0  0  0
   -4.9057    0.0578    7.4854 C   0  0  0  0  0  0  0  0  0  0  0  0
   -5.5152    0.1924    6.2466 O   0  0  0  0  0  0  0  0  0  0  0  0
   -6.5693    2.7327    6.6718 N   0  0  0  0  0  0  0  0  0  0  0  0
   -7.6129    3.6956    6.4276 C   0  0  1  0  0  0  0  0  0  0  0  0
   -8.2948    4.1546    7.6573 C   0  0  1  0  0  0  0  0  0  0  0  0
   -7.3053    3.9272    8.8442 C   0  0  0  0  0  0  0  0  0  0  0  0
   -8.5923    5.4882    7.7344 O   0  0  0  0  0  0  0  0  0  0  0  0
   -9.4414    5.9888    9.0737 P   0  0  1  0  0  5  0  0  0  0  0  0
  -10.7890    5.0011    9.2901 O   0  0  0  0  0  0  0  0  0  0  0  0
   -8.5030    5.9443   10.4880 O   0  0  0  0  0  0  0  0  0  0  0  0
   -9.9845    7.4048    8.8183 O   0  0  0  0  0  0  0  0  0  0  0  0
   -7.3411    4.7044    5.3867 C   0  0  0  0  0  0  0  0  0  0  0  0
   -8.1043    5.6848    5.2189 O   0  0  0  0  0  0  0  0  0  0  0  0
   -6.2173    4.6140    4.5427 N   0  0  0  0  0  0  0  0  0  0  0  0
   -5.8458    5.5009    3.4631 C   0  0  2  0  0  0  0  0  0  0  0  0
   -5.5276    4.6476    2.2634 C   0  0  0  0  0  0  0  0  0  0  0  0
   -4.8945    3.5496    2.4513 O   0  0  0  0  0  0  0  0  0  0  0  0
   -4.5479    6.1647    3.9643 C   0  0  0  0  0  0  0  0  0  0  0  0
   -3.7597    6.7699    2.8329 C   0  0  0  0  0  0  0  0  0  0  0  0
   -2.5076    7.4161    3.2102 C   0  0  0  0  0  0  0  0  0  0  0  0
   -1.3874    6.9372    3.0502 O   0  0  0  0  0  0  0  0  0  0  0  0
   -2.5565    8.7081    3.8181 O   0  0  0  0  0  0  0  0  0  0  0  0
   -5.8783    4.9785    0.9413 N   0  0  0  0  0  0  0  0  0  0  0  0
   -5.8034    4.3018   -0.3070 C   0  0  2  0  0  0  0  0  0  0  0  0
   -4.7883    4.8414   -1.2708 C   0  0  0  0  0  0  0  0  0  0  0  0
   -4.6783    6.0544   -1.5363 O   0  0  0  0  0  0  0  0  0  0  0  0
   -7.2112    4.5024   -0.8532 C   0  0  0  0  0  0  0  0  0  0  0  0
   -7.7428    5.7609   -0.1677 C   0  0  0  0  0  0  0  0  0  0  0  0
   -6.5195    6.2658    0.5889 C   0  0  0  0  0  0  0  0  0  0  0  0
   -3.9124    3.9353   -1.9079 N   0  0  0  0  0  0  0  0  0  0  0  0
   -2.6110    4.2047   -2.4396 C   0  0  2  0  0  0  0  0  0  0  0  0
   -2.6948    4.2724   -3.8997 C   0  0  0  0  0  0  0  0  0  0  0  0
   -3.9015    4.1410   -4.5605 O   0  0  0  0  0  0  0  0  0  0  0  0
   -1.8106    2.9542   -2.0850 C   0  0  0  0  0  0  0  0  0  0  0  0
   -2.8277    1.8529   -1.9589 C   0  0  0  0  0  0  0  0  0  0  0  0
   -4.1825    2.5305   -2.1244 C   0  0  0  0  0  0  0  0  0  0  0  0
   -1.6728    4.4559   -4.6442 O   0  0  0  0  0  0  0  0  0  0  0  0
  2  1  1  1
  2  3  1  0
  2  5  1  0
  3  4  2  0
  3  9  1  0
  5  6  1  0
  6  7  1  6
  6  8  1  0
  9 10  1  0
 10 11  1  0
 10 13  1  6
 11 12  2  0
 11 15  1  0
 13 14  1  0
 16 15  1  6
 16 17  1  0
 16 19  1  0
 17 18  2  0
 17 22  1  0
 19 20  1  0
 19 21  1  1
 22 23  1  0
 23 24  1  0
 23 26  1  6
 24 25  2  0
 24 31  1  0
 26 27  1  0
 27 28  1  0
 28 29  2  0
 28 30  1  0
 31 32  1  0
 32 33  1  0
 32 35  1  6
 33 34  2  0
 33 39  1  0
 35 36  1  0
 36 37  1  6
 36 38  1  0
 39 40  1  0
 40 41  1  0
 40 43  1  6
 41 42  2  0
 41 45  1  0
 43 44  1  0
 46 45  1  1
 46 47  1  0
 46 54  1  0
 47 48  1  1
 47 49  1  0
 49 50  1  0
 50 51  1  1
 50 52  1  0
 50 53  2  0
 54 55  2  0
 54 56  1  0
 56 57  1  0
 57 58  1  0
 57 60  1  1
 58 59  2  0
 58 65  1  0
 60 61  1  0
 61 62  1  0
 62 63  2  0
 62 64  1  0
 65 66  1  0
 65 71  1  0
 66 67  1  6
 66 69  1  0
 67 68  2  0
 67 72  1  0
 69 70  1  0
 70 71  1  0
 72 73  1  0
 72 78  1  0
 73 74  1  6
 73 76  1  0
 74 75  1  0
 74 79  2  0
 76 77  1  0
 77 78  1  0
M  CHG  1   1   1
M  END
$$$$
