
     RDKit          3D

 79 80  0  0  0  0  0  0  0  0999 V2000
   -9.4162    4.8223   23.0012 N   0  0  0  0  0  4  0  0  0  0  0  0
   -8.4810    3.8224   22.4743 C   0  0  2  0  0  0  0  0  0  0  0  0
   -7.7788    4.3495   21.2868 C   0  0  0  0  0  0  0  0  0  0  0  0
   -8.2658    5.2827   20.5817 O   0  0  0  0  0  0  0  0  0  0  0  0
   -9.3184    2.5950   22.1212 C   0  0  0  0  0  0  0  0  0  0  0  0
   -9.6930    1.7983   23.3447 C   0  0  1  0  0  0  0  0  0  0  0  0
  -11.1785    1.5748   23.3363 C   0  0  0  0  0  0  0  0  0  0  0  0
   -8.9646    0.4541   23.3284 C   0  0  0  0  0  0  0  0  0  0  0  0
   -6.5202    3.8531   20.8633 N   0  0  0  0  0  0  0  0  0  0  0  0
   -5.8565    4.4441   19.7436 C   0  0  2  0  0  0  0  0  0  0  0  0
   -6.4141    3.9917   18.4694 C   0  0  0  0  0  0  0  0  0  0  0  0
   -7.0773    2.8918   18.4285 O   0  0  0  0  0  0  0  0  0  0  0  0
   -4.3607    4.0883   19.7556 C   0  0  0  0  0  0  0  0  0  0  0  0
   -3.9192    3.7209   18.4978 O   0  0  0  0  0  0  0  0  0  0  0  0
   -6.2694    4.6929   17.2548 N   0  0  0  0  0  0  0  0  0  0  0  0
   -7.1206    4.3181   16.1353 C   0  0  2  0  0  0  0  0  0  0  0  0
   -6.2071    3.9184   15.0359 C   0  0  0  0  0  0  0  0  0  0  0  0
   -5.0374    4.3360   14.9617 O   0  0  0  0  0  0  0  0  0  0  0  0
   -8.0303    5.4654   15.7405 C   0  0  2  0  0  0  0  0  0  0  0  0
   -7.2812    6.6317   15.7006 O   0  0  0  0  0  0  0  0  0  0  0  0
   -9.0512    5.5935   16.8603 C   0  0  0  0  0  0  0  0  0  0  0  0
   -6.6801    3.0099   14.0265 N   0  0  0  0  0  0  0  0  0  0  0  0
   -5.8430    2.5416   12.9708 C   0  0  2  0  0  0  0  0  0  0  0  0
   -5.6771    3.4666   11.8721 C   0  0  0  0  0  0  0  0  0  0  0  0
   -6.7017    4.1631   11.5466 O   0  0  0  0  0  0  0  0  0  0  0  0
   -6.4789    1.2921   12.3533 C   0  0  0  0  0  0  0  0  0  0  0  0
   -6.6604    0.1352   13.2417 C   0  0  0  0  0  0  0  0  0  0  0  0
   -7.0262   -1.1474   12.6509 C   0  0  0  0  0  0  0  0  0  0  0  0
   -7.1544   -2.1823   13.3419 O   0  0  0  0  0  0  0  0  0  0  0  0
   -7.2442   -1.2571   11.2711 O   0  0  0  0  0  0  0  0  0  0  0  0
   -4.4927    3.6895   11.1214 N   0  0  0  0  0  0  0  0  0  0  0  0
   -4.4972    4.5853   10.0047 C   0  0  2  0  0  0  0  0  0  0  0  0
   -5.1205    3.9143    8.7903 C   0  0  0  0  0  0  0  0  0  0  0  0
   -6.0512    4.4959    8.2267 O   0  0  0  0  0  0  0  0  0  0  0  0
   -3.2544    5.2882    9.6444 C   0  0  0  0  0  0  0  0  0  0  0  0
   -2.0773    5.2044   10.5355 C   0  0  1  0  0  0  0  0  0  0  0  0
   -0.9073    5.9343    9.8079 C   0  0  0  0  0  0  0  0  0  0  0  0
   -2.2304    5.9935   11.8276 C   0  0  0  0  0  0  0  0  0  0  0  0
   -4.6013    2.6710    8.3641 N   0  0  0  0  0  0  0  0  0  0  0  0
   -5.1171    1.8467    7.3077 C   0  0  2  0  0  0  0  0  0  0  0  0
   -6.1270    2.5183    6.4831 C   0  0  0  0  0  0  0  0  0  0  0  0
   -7.3694    2.1953    6.5682 O   0  0  0  0  0  0  0  0  0  0  0  0
   -5.7489    0.5672    7.9352 C   0  0  0  0  0  0  0  0  0  0  0  0
   -4.6904   -0.2889    8.2018 O   0  0  0  0  0  0  0  0  0  0  0  0
   -5.7724    3.5514    5.5711 N   0  0  0  0  0  0  0  0  0  0  0  0
   -6.7134    4.1003    4.6283 C   0  0  1  0  0  0  0  0  0  0  0  0
   -6.9548    5.5487    4.8073 C   0  0  1  0  0  0  0  0  0  0  0  0
   -7.5285    5.7448    6.2467 C   0  0  0  0  0  0  0  0  0  0  0  0
   -5.8552    6.3631    4.7829 O   0  0  0  0  0  0  0  0  0  0  0  0
   -6.1360    8.0008    4.8480 P   0  0  1  0  0  5  0  0  0  0  0  0
   -4.7319    8.8320    4.4288 O   0  0  0  0  0  0  0  0  0  0  0  0
   -7.3852    8.4846    3.8048 O   0  0  0  0  0  0  0  0  0  0  0  0
   -6.4495    8.3948    6.3013 O   0  0  0  0  0  0  0  0  0  0  0  0
   -6.6249    3.5940    3.2460 C   0  0  0  0  0  0  0  0  0  0  0  0
   -7.5866    2.9914    2.7133 O   0  0  0  0  0  0  0  0  0  0  0  0
   -5.4648    3.7670    2.4664 N   0  0  0  0  0  0  0  0  0  0  0  0
   -5.1177    3.0977    1.2327 C   0  0  2  0  0  0  0  0  0  0  0  0
   -4.8847    1.6448    1.5541 C   0  0  0  0  0  0  0  0  0  0  0  0
   -4.7800    1.3056    2.7853 O   0  0  0  0  0  0  0  0  0  0  0  0
   -3.7770    3.7433    0.8303 C   0  0  0  0  0  0  0  0  0  0  0  0
   -3.8537    4.3822   -0.5311 C   0  0  0  0  0  0  0  0  0  0  0  0
   -3.3818    3.5620   -1.6412 C   0  0  0  0  0  0  0  0  0  0  0  0
   -3.5176    3.8355   -2.8314 O   0  0  0  0  0  0  0  0  0  0  0  0
   -2.7062    2.3367   -1.3522 O   0  0  0  0  0  0  0  0  0  0  0  0
   -4.7704    0.6287    0.5873 N   0  0  0  0  0  0  0  0  0  0  0  0
   -4.5365   -0.7728    0.6397 C   0  0  2  0  0  0  0  0  0  0  0  0
   -3.1969   -1.2203    0.1340 C   0  0  0  0  0  0  0  0  0  0  0  0
   -2.4974   -0.5366   -0.6390 O   0  0  0  0  0  0  0  0  0  0  0  0
   -5.6462   -1.3060   -0.2572 C   0  0  0  0  0  0  0  0  0  0  0  0
   -6.0051   -0.1545   -1.1961 C   0  0  0  0  0  0  0  0  0  0  0  0
   -4.9443    0.8875   -0.8602 C   0  0  0  0  0  0  0  0  0  0  0  0
   -2.7003   -2.4740    0.5530 N   0  0  0  0  0  0  0  0  0  0  0  0
   -1.3885   -3.0083    0.3462 C   0  0  2  0  0  0  0  0  0  0  0  0
   -1.4442   -4.0185   -0.7121 C   0  0  0  0  0  0  0  0  0  0  0  0
   -2.6365   -4.3610   -1.3212 O   0  0  0  0  0  0  0  0  0  0  0  0
   -1.0839   -3.7330    1.6547 C   0  0  0  0  0  0  0  0  0  0  0  0
   -2.4256   -4.0926    2.2324 C   0  0  0  0  0  0  0  0  0  0  0  0
   -3.4518   -3.4580    1.3015 C   0  0  0  0  0  0  0  0  0  0  0  0
   -0.4089   -4.6371   -1.1339 O   0  0  0  0  0  0  0  0  0  0  0  0
  2  1  1  6
  2  3  1  0
  2  5  1  0
  3  4  2  0
  3  9  1  0
  5  6  1  0
  6  7  1  6
  6  8  1  0
  9 10  1  0
 10 11  1  0
 10 13  1  6
 11 12  2  0
 11 15  1  0
 13 14  1  0
 16 15  1  1
 16 17  1  0
 16 19  1  0
 17 18  2  0
 17 22  1  0
 19 20  1  0
 19 21  1  1
 22 23  1  0
 23 24  1  0
 23 26  1  6
 24 25  2  0
 24 31  1  0
 26 27  1  0
 27 28  1  0
 28 29  2  0
 28 30  1  0
 31 32  1  0
 32 33  1  0
 32 35  1  6
 33 34  2  0
 33 39  1  0
 35 36  1  0
 36 37  1  6
 36 38  1  0
 39 40  1  0
 40 41  1  0
 40 43  1  1
 41 42  2  0
 41 45  1  0
 43 44  1  0
 46 45  1  1
 46 47  1  0
 46 54  1  0
 47 48  1  1
 47 49  1  0
 49 50  1  0
 50 51  1  6
 50 52  1  0
 50 53  2  0
 54 55  2  0
 54 56  1  0
 56 57  1  0
 57 58  1  0
 57 60  1  1
 58 59  2  0
 58 65  1  0
 60 61  1  0
 61 62  1  0
 62 63  2  0
 62 64  1  0
 65 66  1  0
 65 71  1  0
 66 67  1  6
 66 69  1  0
 67 68  2  0
 67 72  1  0
 69 70  1  0
 70 71  1  0
 72 73  1  0
 72 78  1  0
 73 74  1  6
 73 76  1  0
 74 75  1  0
 74 79  2  0
 76 77  1  0
 77 78  1  0
M  CHG  1   1   1
M  END
$$$$
