
     RDKit          3D

 79 80  0  0  0  0  0  0  0  0999 V2000
   -6.6090    3.6284   19.3072 N   0  0  0  0  0  4  0  0  0  0  0  0
   -5.2012    3.6006   19.7190 C   0  0  2  0  0  0  0  0  0  0  0  0
   -4.3519    4.2382   18.6928 C   0  0  0  0  0  0  0  0  0  0  0  0
   -4.5874    5.4061   18.2615 O   0  0  0  0  0  0  0  0  0  0  0  0
   -4.8360    2.1289   19.9018 C   0  0  0  0  0  0  0  0  0  0  0  0
   -5.5649    1.5088   21.0663 C   0  0  1  0  0  0  0  0  0  0  0  0
   -5.3019    0.0297   21.0652 C   0  0  0  0  0  0  0  0  0  0  0  0
   -5.0668    2.1247   22.3741 C   0  0  0  0  0  0  0  0  0  0  0  0
   -3.2223    3.5923   18.1300 N   0  0  0  0  0  0  0  0  0  0  0  0
   -2.4375    4.2569   17.1371 C   0  0  2  0  0  0  0  0  0  0  0  0
   -3.1818    4.4700   15.8963 C   0  0  0  0  0  0  0  0  0  0  0  0
   -4.4632    4.5571   15.9390 O   0  0  0  0  0  0  0  0  0  0  0  0
   -1.1857    3.4305   16.7990 C   0  0  0  0  0  0  0  0  0  0  0  0
   -0.2990    3.4005   17.8596 O   0  0  0  0  0  0  0  0  0  0  0  0
   -2.5781    4.5865   14.6276 N   0  0  0  0  0  0  0  0  0  0  0  0
   -3.4382    4.7673   13.4674 C   0  0  2  0  0  0  0  0  0  0  0  0
   -3.7281    3.4064   12.9506 C   0  0  0  0  0  0  0  0  0  0  0  0
   -2.9117    2.4728   13.0487 O   0  0  0  0  0  0  0  0  0  0  0  0
   -2.7682    5.6473   12.4300 C   0  0  2  0  0  0  0  0  0  0  0  0
   -3.1291    6.9651   12.6667 O   0  0  0  0  0  0  0  0  0  0  0  0
   -3.3493    5.2283   11.0886 C   0  0  0  0  0  0  0  0  0  0  0  0
   -4.9972    3.1497   12.3250 N   0  0  0  0  0  0  0  0  0  0  0  0
   -5.3477    1.8653   11.8127 C   0  0  2  0  0  0  0  0  0  0  0  0
   -5.2085    1.7246   10.3806 C   0  0  0  0  0  0  0  0  0  0  0  0
   -5.4029    2.7775    9.6773 O   0  0  0  0  0  0  0  0  0  0  0  0
   -6.8298    1.6061   12.1011 C   0  0  0  0  0  0  0  0  0  0  0  0
   -7.3009    0.2223   11.9464 C   0  0  0  0  0  0  0  0  0  0  0  0
   -7.1492   -0.6958   13.0698 C   0  0  0  0  0  0  0  0  0  0  0  0
   -7.6067   -0.4350   14.2046 O   0  0  0  0  0  0  0  0  0  0  0  0
   -6.4736   -1.9124   12.9063 O   0  0  0  0  0  0  0  0  0  0  0  0
   -4.8699    0.5413    9.6727 N   0  0  0  0  0  0  0  0  0  0  0  0
   -4.7540    0.5553    8.2459 C   0  0  2  0  0  0  0  0  0  0  0  0
   -6.1305    0.4896    7.6022 C   0  0  0  0  0  0  0  0  0  0  0  0
   -6.2589   -0.2026    6.5891 O   0  0  0  0  0  0  0  0  0  0  0  0
   -3.8170   -0.3747    7.5935 C   0  0  0  0  0  0  0  0  0  0  0  0
   -2.3613   -0.1256    7.6694 C   0  0  1  0  0  0  0  0  0  0  0  0
   -1.6603   -1.3276    6.9660 C   0  0  0  0  0  0  0  0  0  0  0  0
   -1.9020    1.0727    6.8517 C   0  0  0  0  0  0  0  0  0  0  0  0
   -7.1898    1.2118    8.1965 N   0  0  0  0  0  0  0  0  0  0  0  0
   -8.5290    1.3336    7.6932 C   0  0  2  0  0  0  0  0  0  0  0  0
   -8.5914    1.8223    6.3118 C   0  0  0  0  0  0  0  0  0  0  0  0
   -8.4766    1.0118    5.3194 O   0  0  0  0  0  0  0  0  0  0  0  0
   -9.3207    2.3141    8.6107 C   0  0  0  0  0  0  0  0  0  0  0  0
   -9.3300    1.7335    9.8705 O   0  0  0  0  0  0  0  0  0  0  0  0
   -8.7892    3.2012    6.0212 N   0  0  0  0  0  0  0  0  0  0  0  0
   -8.9476    3.6874    4.6743 C   0  0  1  0  0  0  0  0  0  0  0  0
  -10.0326    4.6820    4.5274 C   0  0  1  0  0  0  0  0  0  0  0  0
  -11.2928    4.0966    5.2406 C   0  0  0  0  0  0  0  0  0  0  0  0
   -9.8458    5.8912    5.1404 O   0  0  0  0  0  0  0  0  0  0  0  0
  -11.0620    7.0123    4.9692 P   0  0  1  0  0  5  0  0  0  0  0  0
  -12.5312    6.3264    5.4265 O   0  0  0  0  0  0  0  0  0  0  0  0
  -10.7966    8.4025    5.9072 O   0  0  0  0  0  0  0  0  0  0  0  0
  -11.2018    7.3718    3.4804 O   0  0  0  0  0  0  0  0  0  0  0  0
   -7.7061    3.9218    3.9135 C   0  0  0  0  0  0  0  0  0  0  0  0
   -7.6812    4.7123    2.9407 O   0  0  0  0  0  0  0  0  0  0  0  0
   -6.5001    3.2751    4.2461 N   0  0  0  0  0  0  0  0  0  0  0  0
   -5.1537    3.7822    4.1039 C   0  0  2  0  0  0  0  0  0  0  0  0
   -4.4514    2.9264    3.0827 C   0  0  0  0  0  0  0  0  0  0  0  0
   -3.2058    3.1374    2.8685 O   0  0  0  0  0  0  0  0  0  0  0  0
   -4.5205    3.5333    5.4871 C   0  0  0  0  0  0  0  0  0  0  0  0
   -4.2967    4.8203    6.2363 C   0  0  0  0  0  0  0  0  0  0  0  0
   -3.6361    4.6911    7.5304 C   0  0  0  0  0  0  0  0  0  0  0  0
   -2.4312    4.8300    7.7273 O   0  0  0  0  0  0  0  0  0  0  0  0
   -4.4271    4.3766    8.6779 O   0  0  0  0  0  0  0  0  0  0  0  0
   -5.0754    1.9063    2.3409 N   0  0  0  0  0  0  0  0  0  0  0  0
   -4.6064    0.8303    1.5385 C   0  0  2  0  0  0  0  0  0  0  0  0
   -4.8481    0.9744    0.0650 C   0  0  0  0  0  0  0  0  0  0  0  0
   -5.7874    1.6429   -0.4092 O   0  0  0  0  0  0  0  0  0  0  0  0
   -5.4053   -0.3417    2.0940 C   0  0  0  0  0  0  0  0  0  0  0  0
   -6.6602    0.2729    2.7136 C   0  0  0  0  0  0  0  0  0  0  0  0
   -6.5460    1.7372    2.3054 C   0  0  0  0  0  0  0  0  0  0  0  0
   -3.9705    0.3252   -0.8308 N   0  0  0  0  0  0  0  0  0  0  0  0
   -3.7801    0.6010   -2.2225 C   0  0  2  0  0  0  0  0  0  0  0  0
   -4.4469   -0.4362   -3.0118 C   0  0  0  0  0  0  0  0  0  0  0  0
   -5.0629   -1.5172   -2.4102 O   0  0  0  0  0  0  0  0  0  0  0  0
   -2.2762    0.4312   -2.4213 C   0  0  0  0  0  0  0  0  0  0  0  0
   -1.8350   -0.5118   -1.3353 C   0  0  0  0  0  0  0  0  0  0  0  0
   -3.0728   -0.7538   -0.4800 C   0  0  0  0  0  0  0  0  0  0  0  0
   -4.5017   -0.4072   -4.2880 O   0  0  0  0  0  0  0  0  0  0  0  0
  2  1  1  6
  2  3  1  0
  2  5  1  0
  3  4  2  0
  3  9  1  0
  5  6  1  0
  6  7  1  1
  6  8  1  0
  9 10  1  0
 10 11  1  0
 10 13  1  6
 11 12  2  0
 11 15  1  0
 13 14  1  0
 16 15  1  1
 16 17  1  0
 16 19  1  0
 17 18  2  0
 17 22  1  0
 19 20  1  0
 19 21  1  6
 22 23  1  0
 23 24  1  0
 23 26  1  6
 24 25  2  0
 24 31  1  0
 26 27  1  0
 27 28  1  0
 28 29  2  0
 28 30  1  0
 31 32  1  0
 32 33  1  0
 32 35  1  6
 33 34  2  0
 33 39  1  0
 35 36  1  0
 36 37  1  6
 36 38  1  0
 39 40  1  0
 40 41  1  0
 40 43  1  1
 41 42  2  0
 41 45  1  0
 43 44  1  0
 46 45  1  1
 46 47  1  0
 46 54  1  0
 47 48  1  1
 47 49  1  0
 49 50  1  0
 50 51  1  1
 50 52  1  0
 50 53  2  0
 54 55  2  0
 54 56  1  0
 56 57  1  0
 57 58  1  0
 57 60  1  1
 58 59  2  0
 58 65  1  0
 60 61  1  0
 61 62  1  0
 62 63  2  0
 62 64  1  0
 65 66  1  0
 65 71  1  0
 66 67  1  6
 66 69  1  0
 67 68  2  0
 67 72  1  0
 69 70  1  0
 70 71  1  0
 72 73  1  0
 72 78  1  0
 73 74  1  6
 73 76  1  0
 74 75  1  0
 74 79  2  0
 76 77  1  0
 77 78  1  0
M  CHG  1   1   1
M  END
$$$$
