
     RDKit          3D

 79 80  0  0  0  0  0  0  0  0999 V2000
   -8.0940   -6.4670   13.1769 N   0  0  0  0  0  4  0  0  0  0  0  0
   -7.4211   -5.2234   12.7860 C   0  0  2  0  0  0  0  0  0  0  0  0
   -7.2504   -5.1691   11.3201 C   0  0  0  0  0  0  0  0  0  0  0  0
   -7.1491   -6.2200   10.6196 O   0  0  0  0  0  0  0  0  0  0  0  0
   -6.0709   -5.2228   13.4998 C   0  0  0  0  0  0  0  0  0  0  0  0
   -5.3019   -3.9511   13.2481 C   0  0  1  0  0  0  0  0  0  0  0  0
   -4.5549   -4.0898   11.9521 C   0  0  0  0  0  0  0  0  0  0  0  0
   -6.2696   -2.7702   13.1670 C   0  0  0  0  0  0  0  0  0  0  0  0
   -7.1940   -3.9467   10.6044 N   0  0  0  0  0  0  0  0  0  0  0  0
   -8.1046   -3.7025    9.5299 C   0  0  2  0  0  0  0  0  0  0  0  0
   -7.8224   -2.4427    8.8424 C   0  0  0  0  0  0  0  0  0  0  0  0
   -6.8596   -1.7009    9.2596 O   0  0  0  0  0  0  0  0  0  0  0  0
   -9.5492   -3.6401   10.0527 C   0  0  0  0  0  0  0  0  0  0  0  0
  -10.2640   -4.7689    9.6965 O   0  0  0  0  0  0  0  0  0  0  0  0
   -8.5512   -1.9737    7.7304 N   0  0  0  0  0  0  0  0  0  0  0  0
   -7.9156   -1.0091    6.8450 C   0  0  2  0  0  0  0  0  0  0  0  0
   -8.4050    0.3268    7.2679 C   0  0  0  0  0  0  0  0  0  0  0  0
   -7.8725    1.3813    6.8777 O   0  0  0  0  0  0  0  0  0  0  0  0
   -8.2416   -1.3100    5.3950 C   0  0  2  0  0  0  0  0  0  0  0  0
   -7.5588   -2.4558    5.0155 O   0  0  0  0  0  0  0  0  0  0  0  0
   -7.6928   -0.1410    4.5920 C   0  0  0  0  0  0  0  0  0  0  0  0
   -9.5387    0.4116    8.1486 N   0  0  0  0  0  0  0  0  0  0  0  0
   -9.9704    1.6465    8.7173 C   0  0  2  0  0  0  0  0  0  0  0  0
   -9.0609    2.2202    9.6837 C   0  0  0  0  0  0  0  0  0  0  0  0
   -9.5380    3.1224   10.4580 O   0  0  0  0  0  0  0  0  0  0  0  0
  -11.2752    1.4080    9.4838 C   0  0  0  0  0  0  0  0  0  0  0  0
  -12.3736    0.7768    8.7382 C   0  0  0  0  0  0  0  0  0  0  0  0
  -13.7071    0.7743    9.3296 C   0  0  0  0  0  0  0  0  0  0  0  0
  -14.0187   -0.0055   10.2569 O   0  0  0  0  0  0  0  0  0  0  0  0
  -14.6913    1.6569    8.8655 O   0  0  0  0  0  0  0  0  0  0  0  0
   -7.6948    1.8810    9.8695 N   0  0  0  0  0  0  0  0  0  0  0  0
   -6.8848    2.6079   10.7995 C   0  0  2  0  0  0  0  0  0  0  0  0
   -6.9042    4.0929   10.4708 C   0  0  0  0  0  0  0  0  0  0  0  0
   -7.5915    4.4611    9.5147 O   0  0  0  0  0  0  0  0  0  0  0  0
   -5.5152    2.1421   11.0746 C   0  0  0  0  0  0  0  0  0  0  0  0
   -4.3666    2.8144   10.4301 C   0  0  1  0  0  0  0  0  0  0  0  0
   -3.0878    2.3569   11.1959 C   0  0  0  0  0  0  0  0  0  0  0  0
   -4.1051    2.3481    9.0054 C   0  0  0  0  0  0  0  0  0  0  0  0
   -6.1468    4.9734   11.2759 N   0  0  0  0  0  0  0  0  0  0  0  0
   -6.1566    6.4078   11.2159 C   0  0  2  0  0  0  0  0  0  0  0  0
   -5.2678    7.0394   12.1968 C   0  0  0  0  0  0  0  0  0  0  0  0
   -5.2861    8.3126   12.3800 O   0  0  0  0  0  0  0  0  0  0  0  0
   -7.6126    6.9086   11.4596 C   0  0  0  0  0  0  0  0  0  0  0  0
   -7.5022    8.2475   11.8050 O   0  0  0  0  0  0  0  0  0  0  0  0
   -4.3650    6.2701   12.9830 N   0  0  0  0  0  0  0  0  0  0  0  0
   -3.0982    6.7916   13.4290 C   0  0  1  0  0  0  0  0  0  0  0  0
   -2.7605    6.4180   14.8199 C   0  0  1  0  0  0  0  0  0  0  0  0
   -4.0683    6.5538   15.6630 C   0  0  0  0  0  0  0  0  0  0  0  0
   -2.3713    5.1232   15.0318 O   0  0  0  0  0  0  0  0  0  0  0  0
   -1.9064    4.7256   16.5781 P   0  0  1  0  0  5  0  0  0  0  0  0
   -0.7914    5.8561   17.1411 O   0  0  0  0  0  0  0  0  0  0  0  0
   -3.2183    4.6742   17.6546 O   0  0  0  0  0  0  0  0  0  0  0  0
   -1.1690    3.3763   16.5448 O   0  0  0  0  0  0  0  0  0  0  0  0
   -2.0036    6.7842   12.4408 C   0  0  0  0  0  0  0  0  0  0  0  0
   -1.3634    5.7358   12.1900 O   0  0  0  0  0  0  0  0  0  0  0  0
   -1.6335    7.9462   11.7363 N   0  0  0  0  0  0  0  0  0  0  0  0
   -0.8701    8.0352   10.5117 C   0  0  2  0  0  0  0  0  0  0  0  0
   -0.8757    9.4772   10.0767 C   0  0  0  0  0  0  0  0  0  0  0  0
   -1.9918   10.0004    9.7267 O   0  0  0  0  0  0  0  0  0  0  0  0
   -1.6924    7.2052    9.5062 C   0  0  0  0  0  0  0  0  0  0  0  0
   -1.0774    7.2276    8.1319 C   0  0  0  0  0  0  0  0  0  0  0  0
   -1.7655    6.4350    7.1190 C   0  0  0  0  0  0  0  0  0  0  0  0
   -2.9803    6.2593    7.0622 O   0  0  0  0  0  0  0  0  0  0  0  0
   -0.9914    5.7988    6.1005 O   0  0  0  0  0  0  0  0  0  0  0  0
    0.2697   10.2931   10.0255 N   0  0  0  0  0  0  0  0  0  0  0  0
    1.2259   10.7271   10.9842 C   0  0  2  0  0  0  0  0  0  0  0  0
    1.1626   12.1827   11.3416 C   0  0  0  0  0  0  0  0  0  0  0  0
    0.6329   13.0416   10.6096 O   0  0  0  0  0  0  0  0  0  0  0  0
    2.5381   10.4118   10.2778 C   0  0  0  0  0  0  0  0  0  0  0  0
    2.2104   10.4062    8.7848 C   0  0  0  0  0  0  0  0  0  0  0  0
    0.7643   10.8880    8.7630 C   0  0  0  0  0  0  0  0  0  0  0  0
    1.7269   12.6034   12.5658 N   0  0  0  0  0  0  0  0  0  0  0  0
    1.7176   13.9206   13.1259 C   0  0  2  0  0  0  0  0  0  0  0  0
    3.0422   14.5215   12.9586 C   0  0  0  0  0  0  0  0  0  0  0  0
    4.0721   13.8382   12.3402 O   0  0  0  0  0  0  0  0  0  0  0  0
    1.5114   13.6764   14.6186 C   0  0  0  0  0  0  0  0  0  0  0  0
    2.0409   12.2913   14.8722 C   0  0  0  0  0  0  0  0  0  0  0  0
    2.4190   11.7437   13.5014 C   0  0  0  0  0  0  0  0  0  0  0  0
    3.3250   15.6988   13.3666 O   0  0  0  0  0  0  0  0  0  0  0  0
  2  1  1  6
  2  3  1  0
  2  5  1  0
  3  4  2  0
  3  9  1  0
  5  6  1  0
  6  7  1  6
  6  8  1  0
  9 10  1  0
 10 11  1  0
 10 13  1  1
 11 12  2  0
 11 15  1  0
 13 14  1  0
 16 15  1  1
 16 17  1  0
 16 19  1  0
 17 18  2  0
 17 22  1  0
 19 20  1  0
 19 21  1  6
 22 23  1  0
 23 24  1  0
 23 26  1  1
 24 25  2  0
 24 31  1  0
 26 27  1  0
 27 28  1  0
 28 29  2  0
 28 30  1  0
 31 32  1  0
 32 33  1  0
 32 35  1  6
 33 34  2  0
 33 39  1  0
 35 36  1  0
 36 37  1  1
 36 38  1  0
 39 40  1  0
 40 41  1  0
 40 43  1  1
 41 42  2  0
 41 45  1  0
 43 44  1  0
 46 45  1  6
 46 47  1  0
 46 54  1  0
 47 48  1  1
 47 49  1  0
 49 50  1  0
 50 51  1  1
 50 52  1  0
 50 53  2  0
 54 55  2  0
 54 56  1  0
 56 57  1  0
 57 58  1  0
 57 60  1  6
 58 59  2  0
 58 65  1  0
 60 61  1  0
 61 62  1  0
 62 63  2  0
 62 64  1  0
 65 66  1  0
 65 71  1  0
 66 67  1  6
 66 69  1  0
 67 68  2  0
 67 72  1  0
 69 70  1  0
 70 71  1  0
 72 73  1  0
 72 78  1  0
 73 74  1  1
 73 76  1  0
 74 75  1  0
 74 79  2  0
 76 77  1  0
 77 78  1  0
M  CHG  1   1   1
M  END
$$$$
