
     RDKit          3D

 79 80  0  0  0  0  0  0  0  0999 V2000
  -10.7600   -1.3587   14.5217 N   0  0  0  0  0  4  0  0  0  0  0  0
  -10.2051   -1.4492   13.1666 C   0  0  2  0  0  0  0  0  0  0  0  0
  -10.0565   -0.1021   12.5800 C   0  0  0  0  0  0  0  0  0  0  0  0
  -10.8984    0.8191   12.7992 O   0  0  0  0  0  0  0  0  0  0  0  0
  -11.1831   -2.2991   12.3579 C   0  0  0  0  0  0  0  0  0  0  0  0
  -11.0362   -3.7682   12.6615 C   0  0  1  0  0  0  0  0  0  0  0  0
  -12.1572   -4.5115   11.9924 C   0  0  0  0  0  0  0  0  0  0  0  0
   -9.6915   -4.2718   12.1361 C   0  0  0  0  0  0  0  0  0  0  0  0
   -8.9674    0.2484   11.7428 N   0  0  0  0  0  0  0  0  0  0  0  0
   -8.7804    1.6075   11.3413 C   0  0  2  0  0  0  0  0  0  0  0  0
   -9.2888    1.8601    9.9934 C   0  0  0  0  0  0  0  0  0  0  0  0
   -9.5324    0.8657    9.2169 O   0  0  0  0  0  0  0  0  0  0  0  0
   -7.2868    1.9723   11.3570 C   0  0  0  0  0  0  0  0  0  0  0  0
   -6.7254    1.7475   12.6005 O   0  0  0  0  0  0  0  0  0  0  0  0
   -9.5334    3.1479    9.4741 N   0  0  0  0  0  0  0  0  0  0  0  0
  -10.0065    3.2609    8.1023 C   0  0  2  0  0  0  0  0  0  0  0  0
   -8.8217    3.0404    7.2360 C   0  0  0  0  0  0  0  0  0  0  0  0
   -7.6634    3.2738    7.6258 O   0  0  0  0  0  0  0  0  0  0  0  0
  -10.6522    4.6119    7.8630 C   0  0  2  0  0  0  0  0  0  0  0  0
   -9.8307    5.5959    8.3921 O   0  0  0  0  0  0  0  0  0  0  0  0
  -11.9510    4.6004    8.6539 C   0  0  0  0  0  0  0  0  0  0  0  0
   -9.0115    2.5297    5.9051 N   0  0  0  0  0  0  0  0  0  0  0  0
   -8.0059    2.6341    4.8988 C   0  0  2  0  0  0  0  0  0  0  0  0
   -7.2708    3.8791    4.9025 C   0  0  0  0  0  0  0  0  0  0  0  0
   -6.0103    3.8025    5.1179 O   0  0  0  0  0  0  0  0  0  0  0  0
   -8.6751    2.5651    3.5226 C   0  0  0  0  0  0  0  0  0  0  0  0
   -7.7847    2.5838    2.3531 C   0  0  0  0  0  0  0  0  0  0  0  0
   -8.3741    2.4498    1.0254 C   0  0  0  0  0  0  0  0  0  0  0  0
   -8.5671    1.3329    0.4962 O   0  0  0  0  0  0  0  0  0  0  0  0
   -8.7429    3.5869    0.2944 O   0  0  0  0  0  0  0  0  0  0  0  0
   -7.8002    5.1782    4.6832 N   0  0  0  0  0  0  0  0  0  0  0  0
   -6.9280    6.3041    4.5385 C   0  0  2  0  0  0  0  0  0  0  0  0
   -6.0181    6.4283    5.7511 C   0  0  0  0  0  0  0  0  0  0  0  0
   -4.9367    5.8353    5.7215 O   0  0  0  0  0  0  0  0  0  0  0  0
   -7.4982    7.6096    4.1657 C   0  0  0  0  0  0  0  0  0  0  0  0
   -7.9066    7.8611    2.7669 C   0  0  1  0  0  0  0  0  0  0  0  0
   -8.9272    9.0393    2.7994 C   0  0  0  0  0  0  0  0  0  0  0  0
   -6.7849    8.3959    1.8885 C   0  0  0  0  0  0  0  0  0  0  0  0
   -6.4483    7.2185    6.8409 N   0  0  0  0  0  0  0  0  0  0  0  0
   -5.9640    7.1487    8.1906 C   0  0  2  0  0  0  0  0  0  0  0  0
   -4.8328    6.2303    8.3583 C   0  0  0  0  0  0  0  0  0  0  0  0
   -4.9161    5.0044    7.9772 O   0  0  0  0  0  0  0  0  0  0  0  0
   -7.1295    6.6864    9.1168 C   0  0  0  0  0  0  0  0  0  0  0  0
   -6.5754    6.5338   10.3793 O   0  0  0  0  0  0  0  0  0  0  0  0
   -3.6065    6.6620    8.9369 N   0  0  0  0  0  0  0  0  0  0  0  0
   -2.5333    5.7478    9.2340 C   0  0  1  0  0  0  0  0  0  0  0  0
   -1.3080    6.4132    9.7278 C   0  0  1  0  0  0  0  0  0  0  0  0
   -0.9251    7.5074    8.6811 C   0  0  0  0  0  0  0  0  0  0  0  0
   -1.4167    7.1103   10.9005 O   0  0  0  0  0  0  0  0  0  0  0  0
   -0.0181    7.7730   11.5089 P   0  0  1  0  0  5  0  0  0  0  0  0
   -0.3979    8.8779   12.7226 O   0  0  0  0  0  0  0  0  0  0  0  0
    1.0273    6.5994   12.1509 O   0  0  0  0  0  0  0  0  0  0  0  0
    0.6755    8.5787   10.3976 O   0  0  0  0  0  0  0  0  0  0  0  0
   -2.9168    4.4745    9.8716 C   0  0  0  0  0  0  0  0  0  0  0  0
   -2.5196    4.1809   11.0239 O   0  0  0  0  0  0  0  0  0  0  0  0
   -3.7440    3.5392    9.2201 N   0  0  0  0  0  0  0  0  0  0  0  0
   -3.8967    2.1325    9.5170 C   0  0  2  0  0  0  0  0  0  0  0  0
   -3.0693    1.3653    8.5192 C   0  0  0  0  0  0  0  0  0  0  0  0
   -2.5368    2.0113    7.5491 O   0  0  0  0  0  0  0  0  0  0  0  0
   -5.3893    1.8605    9.2449 C   0  0  0  0  0  0  0  0  0  0  0  0
   -6.2766    2.7839   10.0373 C   0  0  0  0  0  0  0  0  0  0  0  0
   -5.8746    3.0129   11.4206 C   0  0  0  0  0  0  0  0  0  0  0  0
   -4.7855    2.7086   11.9011 O   0  0  0  0  0  0  0  0  0  0  0  0
   -6.8010    3.6369   12.3115 O   0  0  0  0  0  0  0  0  0  0  0  0
   -2.8428   -0.0223    8.5790 N   0  0  0  0  0  0  0  0  0  0  0  0
   -2.0704   -0.9382    7.8133 C   0  0  2  0  0  0  0  0  0  0  0  0
   -2.8590   -1.8938    6.9674 C   0  0  0  0  0  0  0  0  0  0  0  0
   -3.9424   -2.3917    7.3315 O   0  0  0  0  0  0  0  0  0  0  0  0
   -1.3159   -1.6922    8.9008 C   0  0  0  0  0  0  0  0  0  0  0  0
   -2.1695   -1.5585   10.1617 C   0  0  0  0  0  0  0  0  0  0  0  0
   -3.4281   -0.8770    9.6369 C   0  0  0  0  0  0  0  0  0  0  0  0
   -2.3544   -2.2468    5.6967 N   0  0  0  0  0  0  0  0  0  0  0  0
   -3.0732   -2.8175    4.5982 C   0  0  2  0  0  0  0  0  0  0  0  0
   -2.7442   -4.2407    4.4982 C   0  0  0  0  0  0  0  0  0  0  0  0
   -1.7886   -4.8196    5.3117 O   0  0  0  0  0  0  0  0  0  0  0  0
   -2.4763   -2.1232    3.3769 C   0  0  0  0  0  0  0  0  0  0  0  0
   -1.0904   -1.7100    3.7915 C   0  0  0  0  0  0  0  0  0  0  0  0
   -0.9837   -2.0710    5.2681 C   0  0  0  0  0  0  0  0  0  0  0  0
   -3.3123   -5.0259    3.6657 O   0  0  0  0  0  0  0  0  0  0  0  0
  2  1  1  1
  2  3  1  0
  2  5  1  0
  3  4  2  0
  3  9  1  0
  5  6  1  0
  6  7  1  6
  6  8  1  0
  9 10  1  0
 10 11  1  0
 10 13  1  6
 11 12  2  0
 11 15  1  0
 13 14  1  0
 16 15  1  1
 16 17  1  0
 16 19  1  0
 17 18  2  0
 17 22  1  0
 19 20  1  0
 19 21  1  1
 22 23  1  0
 23 24  1  0
 23 26  1  6
 24 25  2  0
 24 31  1  0
 26 27  1  0
 27 28  1  0
 28 29  2  0
 28 30  1  0
 31 32  1  0
 32 33  1  0
 32 35  1  1
 33 34  2  0
 33 39  1  0
 35 36  1  0
 36 37  1  1
 36 38  1  0
 39 40  1  0
 40 41  1  0
 40 43  1  1
 41 42  2  0
 41 45  1  0
 43 44  1  0
 46 45  1  1
 46 47  1  0
 46 54  1  0
 47 48  1  6
 47 49  1  0
 49 50  1  0
 50 51  1  1
 50 52  1  0
 50 53  2  0
 54 55  2  0
 54 56  1  0
 56 57  1  0
 57 58  1  0
 57 60  1  6
 58 59  2  0
 58 65  1  0
 60 61  1  0
 61 62  1  0
 62 63  2  0
 62 64  1  0
 65 66  1  0
 65 71  1  0
 66 67  1  1
 66 69  1  0
 67 68  2  0
 67 72  1  0
 69 70  1  0
 70 71  1  0
 72 73  1  0
 72 78  1  0
 73 74  1  6
 73 76  1  0
 74 75  1  0
 74 79  2  0
 76 77  1  0
 77 78  1  0
M  CHG  1   1   1
M  END
$$$$
