
     RDKit          3D

 79 80  0  0  0  0  0  0  0  0999 V2000
  -16.4744   -4.4852   12.3591 N   0  0  0  0  0  4  0  0  0  0  0  0
  -15.5694   -4.2719   11.2244 C   0  0  2  0  0  0  0  0  0  0  0  0
  -14.2569   -3.7870   11.6967 C   0  0  0  0  0  0  0  0  0  0  0  0
  -13.9733   -2.5526   11.7316 O   0  0  0  0  0  0  0  0  0  0  0  0
  -16.2468   -3.2422   10.3225 C   0  0  0  0  0  0  0  0  0  0  0  0
  -16.9519   -3.8907    9.1588 C   0  0  1  0  0  0  0  0  0  0  0  0
  -16.1377   -5.0662    8.6981 C   0  0  0  0  0  0  0  0  0  0  0  0
  -18.3414   -4.3584    9.5928 C   0  0  0  0  0  0  0  0  0  0  0  0
  -13.2366   -4.6640   12.1436 N   0  0  0  0  0  0  0  0  0  0  0  0
  -11.9961   -4.1368   12.6198 C   0  0  2  0  0  0  0  0  0  0  0  0
  -11.4615   -3.1002   11.7372 C   0  0  0  0  0  0  0  0  0  0  0  0
  -11.8925   -3.0194   10.5293 O   0  0  0  0  0  0  0  0  0  0  0  0
  -10.9434   -5.2522   12.7273 C   0  0  0  0  0  0  0  0  0  0  0  0
   -9.7802   -4.7933   13.3173 O   0  0  0  0  0  0  0  0  0  0  0  0
  -10.4823   -2.1639   12.1274 N   0  0  0  0  0  0  0  0  0  0  0  0
   -9.9313   -1.2775   11.1129 C   0  0  2  0  0  0  0  0  0  0  0  0
   -8.6591   -1.8986   10.6670 C   0  0  0  0  0  0  0  0  0  0  0  0
   -8.5014   -3.1321   10.6301 O   0  0  0  0  0  0  0  0  0  0  0  0
   -9.7276    0.1188   11.6683 C   0  0  2  0  0  0  0  0  0  0  0  0
   -9.1508    0.0162   12.9251 O   0  0  0  0  0  0  0  0  0  0  0  0
  -11.1188    0.7112   11.8300 C   0  0  0  0  0  0  0  0  0  0  0  0
   -7.5733   -1.0520   10.2520 N   0  0  0  0  0  0  0  0  0  0  0  0
   -6.4709   -1.5446    9.4926 C   0  0  2  0  0  0  0  0  0  0  0  0
   -5.5139   -0.5386    9.0895 C   0  0  0  0  0  0  0  0  0  0  0  0
   -5.9858    0.5150    8.5345 O   0  0  0  0  0  0  0  0  0  0  0  0
   -6.9998   -2.1442    8.1858 C   0  0  0  0  0  0  0  0  0  0  0  0
   -5.9959   -2.5662    7.1984 C   0  0  0  0  0  0  0  0  0  0  0  0
   -6.4504   -2.9856    5.8772 C   0  0  0  0  0  0  0  0  0  0  0  0
   -6.4911   -4.1903    5.5426 O   0  0  0  0  0  0  0  0  0  0  0  0
   -6.8569   -2.0351    4.9314 O   0  0  0  0  0  0  0  0  0  0  0  0
   -4.1045   -0.5937    9.2532 N   0  0  0  0  0  0  0  0  0  0  0  0
   -3.3324    0.6100    9.3187 C   0  0  2  0  0  0  0  0  0  0  0  0
   -4.1690    1.7454    9.8882 C   0  0  0  0  0  0  0  0  0  0  0  0
   -5.2892    1.4706   10.3260 O   0  0  0  0  0  0  0  0  0  0  0  0
   -2.5829    1.0468    8.1288 C   0  0  0  0  0  0  0  0  0  0  0  0
   -1.5784    2.1255    8.2476 C   0  0  1  0  0  0  0  0  0  0  0  0
   -0.3291    1.5044    8.9436 C   0  0  0  0  0  0  0  0  0  0  0  0
   -1.0311    2.6022    6.9101 C   0  0  0  0  0  0  0  0  0  0  0  0
   -3.6232    3.0489    9.8965 N   0  0  0  0  0  0  0  0  0  0  0  0
   -4.1896    4.2084   10.5260 C   0  0  2  0  0  0  0  0  0  0  0  0
   -3.3153    5.3849   10.4777 C   0  0  0  0  0  0  0  0  0  0  0  0
   -2.2635    5.4559   11.2151 O   0  0  0  0  0  0  0  0  0  0  0  0
   -4.4954    3.8689   12.0164 C   0  0  0  0  0  0  0  0  0  0  0  0
   -4.8713    5.0649   12.6102 O   0  0  0  0  0  0  0  0  0  0  0  0
   -3.5922    6.4797    9.6120 N   0  0  0  0  0  0  0  0  0  0  0  0
   -2.7301    7.6311    9.5295 C   0  0  1  0  0  0  0  0  0  0  0  0
   -3.3007    8.7428    8.7379 C   0  0  1  0  0  0  0  0  0  0  0  0
   -3.9353    8.1161    7.4558 C   0  0  0  0  0  0  0  0  0  0  0  0
   -4.3354    9.4350    9.3065 O   0  0  0  0  0  0  0  0  0  0  0  0
   -4.7880   10.8502    8.5598 P   0  0  1  0  0  5  0  0  0  0  0  0
   -3.5526   11.9863    8.7058 O   0  0  0  0  0  0  0  0  0  0  0  0
   -5.1314   10.6305    6.9116 O   0  0  0  0  0  0  0  0  0  0  0  0
   -6.0007   11.4383    9.3006 O   0  0  0  0  0  0  0  0  0  0  0  0
   -1.9896    7.9826   10.7555 C   0  0  0  0  0  0  0  0  0  0  0  0
   -2.4991    8.7205   11.6317 O   0  0  0  0  0  0  0  0  0  0  0  0
   -0.6869    7.5051   10.9969 N   0  0  0  0  0  0  0  0  0  0  0  0
    0.1344    7.7222   12.1667 C   0  0  2  0  0  0  0  0  0  0  0  0
    1.1131    8.8187   11.8375 C   0  0  0  0  0  0  0  0  0  0  0  0
    2.3472    8.5060   11.6917 O   0  0  0  0  0  0  0  0  0  0  0  0
    0.9030    6.3956   12.3262 C   0  0  0  0  0  0  0  0  0  0  0  0
    0.3974    5.5972   13.4986 C   0  0  0  0  0  0  0  0  0  0  0  0
   -0.4721    4.4732   13.1694 C   0  0  0  0  0  0  0  0  0  0  0  0
   -1.5299    4.2070   13.7351 O   0  0  0  0  0  0  0  0  0  0  0  0
   -0.0880    3.5937   12.1111 O   0  0  0  0  0  0  0  0  0  0  0  0
    0.7621   10.1725   11.6812 N   0  0  0  0  0  0  0  0  0  0  0  0
    1.4945   11.3713   11.4614 C   0  0  2  0  0  0  0  0  0  0  0  0
    1.5299   12.3243   12.6194 C   0  0  0  0  0  0  0  0  0  0  0  0
    0.6024   12.4268   13.4461 O   0  0  0  0  0  0  0  0  0  0  0  0
    0.7373   11.9870   10.2918 C   0  0  0  0  0  0  0  0  0  0  0  0
   -0.6743   11.4052   10.3638 C   0  0  0  0  0  0  0  0  0  0  0  0
   -0.6455   10.6319   11.6772 C   0  0  0  0  0  0  0  0  0  0  0  0
    2.6673   13.1444   12.7856 N   0  0  0  0  0  0  0  0  0  0  0  0
    2.9860   13.9818   13.9020 C   0  0  2  0  0  0  0  0  0  0  0  0
    2.7313   15.3778   13.5416 C   0  0  0  0  0  0  0  0  0  0  0  0
    2.3358   15.7336   12.2660 O   0  0  0  0  0  0  0  0  0  0  0  0
    4.4956   13.8174   14.0568 C   0  0  0  0  0  0  0  0  0  0  0  0
    4.9963   13.4320   12.6915 C   0  0  0  0  0  0  0  0  0  0  0  0
    3.7484   13.2700   11.8322 C   0  0  0  0  0  0  0  0  0  0  0  0
    2.8558   16.3410   14.3717 O   0  0  0  0  0  0  0  0  0  0  0  0
  2  1  1  1
  2  3  1  0
  2  5  1  0
  3  4  2  0
  3  9  1  0
  5  6  1  0
  6  7  1  1
  6  8  1  0
  9 10  1  0
 10 11  1  0
 10 13  1  6
 11 12  2  0
 11 15  1  0
 13 14  1  0
 16 15  1  1
 16 17  1  0
 16 19  1  0
 17 18  2  0
 17 22  1  0
 19 20  1  0
 19 21  1  1
 22 23  1  0
 23 24  1  0
 23 26  1  6
 24 25  2  0
 24 31  1  0
 26 27  1  0
 27 28  1  0
 28 29  2  0
 28 30  1  0
 31 32  1  0
 32 33  1  0
 32 35  1  6
 33 34  2  0
 33 39  1  0
 35 36  1  0
 36 37  1  1
 36 38  1  0
 39 40  1  0
 40 41  1  0
 40 43  1  1
 41 42  2  0
 41 45  1  0
 43 44  1  0
 46 45  1  1
 46 47  1  0
 46 54  1  0
 47 48  1  6
 47 49  1  0
 49 50  1  0
 50 51  1  6
 50 52  1  0
 50 53  2  0
 54 55  2  0
 54 56  1  0
 56 57  1  0
 57 58  1  0
 57 60  1  6
 58 59  2  0
 58 65  1  0
 60 61  1  0
 61 62  1  0
 62 63  2  0
 62 64  1  0
 65 66  1  0
 65 71  1  0
 66 67  1  1
 66 69  1  0
 67 68  2  0
 67 72  1  0
 69 70  1  0
 70 71  1  0
 72 73  1  0
 72 78  1  0
 73 74  1  6
 73 76  1  0
 74 75  1  0
 74 79  2  0
 76 77  1  0
 77 78  1  0
M  CHG  1   1   1
M  END
$$$$
