
     RDKit          3D

 79 80  0  0  0  0  0  0  0  0999 V2000
  -11.8983   -3.3576   13.7796 N   0  0  0  0  0  4  0  0  0  0  0  0
  -10.9254   -4.3903   14.1529 C   0  0  2  0  0  0  0  0  0  0  0  0
   -9.5922   -4.0624   13.6090 C   0  0  0  0  0  0  0  0  0  0  0  0
   -8.5989   -4.8337   13.7637 O   0  0  0  0  0  0  0  0  0  0  0  0
  -11.4500   -5.7033   13.5753 C   0  0  0  0  0  0  0  0  0  0  0  0
  -11.1972   -6.8659   14.5008 C   0  0  1  0  0  0  0  0  0  0  0  0
   -9.7134   -7.0569   14.6380 C   0  0  0  0  0  0  0  0  0  0  0  0
  -11.8137   -6.5791   15.8702 C   0  0  0  0  0  0  0  0  0  0  0  0
   -9.3384   -2.8739   12.8790 N   0  0  0  0  0  0  0  0  0  0  0  0
   -8.0351   -2.6234   12.3480 C   0  0  2  0  0  0  0  0  0  0  0  0
   -7.9888   -1.3959   11.5541 C   0  0  0  0  0  0  0  0  0  0  0  0
   -9.0657   -0.9631   11.0025 O   0  0  0  0  0  0  0  0  0  0  0  0
   -7.5899   -3.7853   11.4446 C   0  0  0  0  0  0  0  0  0  0  0  0
   -7.0147   -3.3234   10.2751 O   0  0  0  0  0  0  0  0  0  0  0  0
   -6.8180   -0.6386   11.3451 N   0  0  0  0  0  0  0  0  0  0  0  0
   -6.9566    0.7308   10.8720 C   0  0  2  0  0  0  0  0  0  0  0  0
   -6.7947    0.6781    9.3975 C   0  0  0  0  0  0  0  0  0  0  0  0
   -5.8337    0.1019    8.8568 O   0  0  0  0  0  0  0  0  0  0  0  0
   -5.9350    1.6365   11.5321 C   0  0  2  0  0  0  0  0  0  0  0  0
   -4.6812    1.0581   11.4036 O   0  0  0  0  0  0  0  0  0  0  0  0
   -6.2960    1.6670   13.0090 C   0  0  0  0  0  0  0  0  0  0  0  0
   -7.7840    1.3020    8.5608 N   0  0  0  0  0  0  0  0  0  0  0  0
   -7.5832    1.5005    7.1626 C   0  0  2  0  0  0  0  0  0  0  0  0
   -6.2563    1.9434    6.7970 C   0  0  0  0  0  0  0  0  0  0  0  0
   -5.6892    2.7760    7.5883 O   0  0  0  0  0  0  0  0  0  0  0  0
   -8.5250    2.6083    6.6805 C   0  0  0  0  0  0  0  0  0  0  0  0
   -8.8165    2.6475    5.2403 C   0  0  0  0  0  0  0  0  0  0  0  0
   -9.2915    1.4304    4.5914 C   0  0  0  0  0  0  0  0  0  0  0  0
   -8.9052    1.0946    3.4500 O   0  0  0  0  0  0  0  0  0  0  0  0
  -10.2101    0.5931    5.2382 O   0  0  0  0  0  0  0  0  0  0  0  0
   -5.5126    1.5442    5.6553 N   0  0  0  0  0  0  0  0  0  0  0  0
   -4.1771    2.0192    5.4547 C   0  0  2  0  0  0  0  0  0  0  0  0
   -4.1946    3.4658    4.9850 C   0  0  0  0  0  0  0  0  0  0  0  0
   -3.6680    3.7242    3.8996 O   0  0  0  0  0  0  0  0  0  0  0  0
   -3.2414    1.2116    4.6543 C   0  0  0  0  0  0  0  0  0  0  0  0
   -2.7369   -0.0724    5.1868 C   0  0  1  0  0  0  0  0  0  0  0  0
   -3.9522   -1.0477    5.2403 C   0  0  0  0  0  0  0  0  0  0  0  0
   -1.7626   -0.7802    4.2567 C   0  0  0  0  0  0  0  0  0  0  0  0
   -4.8165    4.4350    5.8041 N   0  0  0  0  0  0  0  0  0  0  0  0
   -5.4353    5.6542    5.3658 C   0  0  2  0  0  0  0  0  0  0  0  0
   -5.4511    6.7026    6.3912 C   0  0  0  0  0  0  0  0  0  0  0  0
   -4.8225    7.8106    6.2118 O   0  0  0  0  0  0  0  0  0  0  0  0
   -6.9023    5.3449    4.9389 C   0  0  0  0  0  0  0  0  0  0  0  0
   -7.1706    6.1801    3.8643 O   0  0  0  0  0  0  0  0  0  0  0  0
   -6.1655    6.5366    7.6106 N   0  0  0  0  0  0  0  0  0  0  0  0
   -5.5229    6.6314    8.8966 C   0  0  1  0  0  0  0  0  0  0  0  0
   -6.2086    5.8645    9.9594 C   0  0  1  0  0  0  0  0  0  0  0  0
   -5.5507    6.2701   11.3167 C   0  0  0  0  0  0  0  0  0  0  0  0
   -7.5372    6.1312   10.1508 O   0  0  0  0  0  0  0  0  0  0  0  0
   -8.5642    5.7504    8.8995 P   0  0  1  0  0  5  0  0  0  0  0  0
   -7.9456    6.3595    7.4557 O   0  0  0  0  0  0  0  0  0  0  0  0
   -8.7854    4.0755    8.7315 O   0  0  0  0  0  0  0  0  0  0  0  0
   -9.9084    6.4630    9.1242 O   0  0  0  0  0  0  0  0  0  0  0  0
   -4.0482    6.6151    8.8934 C   0  0  0  0  0  0  0  0  0  0  0  0
   -3.4113    5.6653    8.3795 O   0  0  0  0  0  0  0  0  0  0  0  0
   -3.2944    7.6610    9.4604 N   0  0  0  0  0  0  0  0  0  0  0  0
   -1.8613    7.7245    9.6400 C   0  0  2  0  0  0  0  0  0  0  0  0
   -1.5652    7.3467   11.0677 C   0  0  0  0  0  0  0  0  0  0  0  0
   -2.5503    7.2136   11.8762 O   0  0  0  0  0  0  0  0  0  0  0  0
   -1.5325    9.2169    9.4380 C   0  0  0  0  0  0  0  0  0  0  0  0
   -1.5579    9.6000    7.9819 C   0  0  0  0  0  0  0  0  0  0  0  0
   -0.6612    8.8444    7.1143 C   0  0  0  0  0  0  0  0  0  0  0  0
   -0.6691    8.8784    5.8861 O   0  0  0  0  0  0  0  0  0  0  0  0
    0.3126    7.9866    7.7118 O   0  0  0  0  0  0  0  0  0  0  0  0
   -0.2713    7.1318   11.5776 N   0  0  0  0  0  0  0  0  0  0  0  0
    0.2589    6.8832   12.8733 C   0  0  2  0  0  0  0  0  0  0  0  0
    1.0591    8.0050   13.4664 C   0  0  0  0  0  0  0  0  0  0  0  0
    1.5629    8.9180   12.7832 O   0  0  0  0  0  0  0  0  0  0  0  0
    1.1502    5.6748   12.6168 C   0  0  0  0  0  0  0  0  0  0  0  0
    1.5110    5.7375   11.1328 C   0  0  0  0  0  0  0  0  0  0  0  0
    0.9258    7.0795   10.7078 C   0  0  0  0  0  0  0  0  0  0  0  0
    1.2512    8.0326   14.8651 N   0  0  0  0  0  0  0  0  0  0  0  0
    1.4580    9.1792   15.6968 C   0  0  2  0  0  0  0  0  0  0  0  0
    2.8719    9.2514   16.0699 C   0  0  0  0  0  0  0  0  0  0  0  0
    3.3186    8.8003   17.2975 O   0  0  0  0  0  0  0  0  0  0  0  0
    0.6672    8.8548   16.9615 C   0  0  0  0  0  0  0  0  0  0  0  0
    0.6062    7.3526   17.0186 C   0  0  0  0  0  0  0  0  0  0  0  0
    1.2554    6.8705   15.7270 C   0  0  0  0  0  0  0  0  0  0  0  0
    3.7691    9.7279   15.2950 O   0  0  0  0  0  0  0  0  0  0  0  0
  2  1  1  6
  2  3  1  0
  2  5  1  0
  3  4  2  0
  3  9  1  0
  5  6  1  0
  6  7  1  1
  6  8  1  0
  9 10  1  0
 10 11  1  0
 10 13  1  6
 11 12  2  0
 11 15  1  0
 13 14  1  0
 16 15  1  1
 16 17  1  0
 16 19  1  0
 17 18  2  0
 17 22  1  0
 19 20  1  0
 19 21  1  1
 22 23  1  0
 23 24  1  0
 23 26  1  1
 24 25  2  0
 24 31  1  0
 26 27  1  0
 27 28  1  0
 28 29  2  0
 28 30  1  0
 31 32  1  0
 32 33  1  0
 32 35  1  6
 33 34  2  0
 33 39  1  0
 35 36  1  0
 36 37  1  6
 36 38  1  0
 39 40  1  0
 40 41  1  0
 40 43  1  1
 41 42  2  0
 41 45  1  0
 43 44  1  0
 46 45  1  6
 46 47  1  0
 46 54  1  0
 47 48  1  1
 47 49  1  0
 49 50  1  0
 50 51  1  6
 50 52  1  0
 50 53  2  0
 54 55  2  0
 54 56  1  0
 56 57  1  0
 57 58  1  0
 57 60  1  1
 58 59  2  0
 58 65  1  0
 60 61  1  0
 61 62  1  0
 62 63  2  0
 62 64  1  0
 65 66  1  0
 65 71  1  0
 66 67  1  6
 66 69  1  0
 67 68  2  0
 67 72  1  0
 69 70  1  0
 70 71  1  0
 72 73  1  0
 72 78  1  0
 73 74  1  1
 73 76  1  0
 74 75  1  0
 74 79  2  0
 76 77  1  0
 77 78  1  0
M  CHG  1   1   1
M  END
$$$$
