
     RDKit          3D

 79 80  0  0  0  0  0  0  0  0999 V2000
   -9.9595    4.6415   19.0767 N   0  0  0  0  0  4  0  0  0  0  0  0
   -9.8752    4.5823   17.6133 C   0  0  2  0  0  0  0  0  0  0  0  0
   -9.6008    3.2010   17.1688 C   0  0  0  0  0  0  0  0  0  0  0  0
   -8.8284    2.4319   17.8147 O   0  0  0  0  0  0  0  0  0  0  0  0
   -8.7453    5.5272   17.2095 C   0  0  0  0  0  0  0  0  0  0  0  0
   -9.1873    6.9682   17.2163 C   0  0  1  0  0  0  0  0  0  0  0  0
   -7.9684    7.8445   17.2732 C   0  0  0  0  0  0  0  0  0  0  0  0
   -9.9856    7.2692   15.9474 C   0  0  0  0  0  0  0  0  0  0  0  0
  -10.1832    2.6465   16.0012 N   0  0  0  0  0  0  0  0  0  0  0  0
   -9.8633    1.3106   15.6057 C   0  0  2  0  0  0  0  0  0  0  0  0
   -8.5700    1.2302   14.9274 C   0  0  0  0  0  0  0  0  0  0  0  0
   -8.0625    2.2932   14.4136 O   0  0  0  0  0  0  0  0  0  0  0  0
  -10.9327    0.7629   14.6464 C   0  0  0  0  0  0  0  0  0  0  0  0
  -12.1560    0.6299   15.2771 O   0  0  0  0  0  0  0  0  0  0  0  0
   -7.8256    0.0405   14.7927 N   0  0  0  0  0  0  0  0  0  0  0  0
   -6.6192    0.0690   13.9789 C   0  0  2  0  0  0  0  0  0  0  0  0
   -5.8966    1.3104   14.3528 C   0  0  0  0  0  0  0  0  0  0  0  0
   -6.4775    2.4038   14.4747 O   0  0  0  0  0  0  0  0  0  0  0  0
   -6.9623    0.0241   12.5025 C   0  0  2  0  0  0  0  0  0  0  0  0
   -5.7856    0.0892   11.7717 O   0  0  0  0  0  0  0  0  0  0  0  0
   -7.7671    1.2834   12.2220 C   0  0  0  0  0  0  0  0  0  0  0  0
   -4.4802    1.2514   14.5943 N   0  0  0  0  0  0  0  0  0  0  0  0
   -3.7136    2.4107   14.9157 C   0  0  2  0  0  0  0  0  0  0  0  0
   -3.0768    3.0495   13.7858 C   0  0  0  0  0  0  0  0  0  0  0  0
   -2.2999    2.3201   13.0749 O   0  0  0  0  0  0  0  0  0  0  0  0
   -2.5676    2.0026   15.8467 C   0  0  0  0  0  0  0  0  0  0  0  0
   -2.9270    1.6803   17.2352 C   0  0  0  0  0  0  0  0  0  0  0  0
   -1.9064    1.8140   18.2689 C   0  0  0  0  0  0  0  0  0  0  0  0
   -0.7623    2.2528   18.0170 O   0  0  0  0  0  0  0  0  0  0  0  0
   -2.1835    1.4458   19.5921 O   0  0  0  0  0  0  0  0  0  0  0  0
   -3.2301    4.4006   13.3770 N   0  0  0  0  0  0  0  0  0  0  0  0
   -2.6701    4.8542   12.1401 C   0  0  2  0  0  0  0  0  0  0  0  0
   -3.6956    4.7429   11.0222 C   0  0  0  0  0  0  0  0  0  0  0  0
   -3.6425    3.7514   10.2900 O   0  0  0  0  0  0  0  0  0  0  0  0
   -1.3598    4.3354   11.7131 C   0  0  0  0  0  0  0  0  0  0  0  0
   -0.7803    4.7724   10.4247 C   0  0  1  0  0  0  0  0  0  0  0  0
   -1.7922    5.7756    9.7917 C   0  0  0  0  0  0  0  0  0  0  0  0
    0.4864    5.6024   10.5734 C   0  0  0  0  0  0  0  0  0  0  0  0
   -4.6581    5.7683   10.8833 N   0  0  0  0  0  0  0  0  0  0  0  0
   -5.7130    5.8238    9.9110 C   0  0  2  0  0  0  0  0  0  0  0  0
   -5.2389    6.0938    8.5497 C   0  0  0  0  0  0  0  0  0  0  0  0
   -4.1274    5.6016    8.1284 O   0  0  0  0  0  0  0  0  0  0  0  0
   -6.7168    6.9420   10.3257 C   0  0  0  0  0  0  0  0  0  0  0  0
   -6.9401    6.7691   11.6838 O   0  0  0  0  0  0  0  0  0  0  0  0
   -5.9911    6.8976    7.6480 N   0  0  0  0  0  0  0  0  0  0  0  0
   -5.7533    6.8863    6.2271 C   0  0  1  0  0  0  0  0  0  0  0  0
   -4.6191    7.7391    5.8096 C   0  0  1  0  0  0  0  0  0  0  0  0
   -5.0269    9.2194    6.0956 C   0  0  0  0  0  0  0  0  0  0  0  0
   -3.4477    7.5863    6.5006 O   0  0  0  0  0  0  0  0  0  0  0  0
   -2.8707    8.9257    7.2996 P   0  0  1  0  0  5  0  0  0  0  0  0
   -3.9286    9.3410    8.5432 O   0  0  0  0  0  0  0  0  0  0  0  0
   -1.3285    8.6690    7.9618 O   0  0  0  0  0  0  0  0  0  0  0  0
   -2.8609   10.1187    6.3291 O   0  0  0  0  0  0  0  0  0  0  0  0
   -5.9093    5.5863    5.5484 C   0  0  0  0  0  0  0  0  0  0  0  0
   -6.0403    4.5249    6.2025 O   0  0  0  0  0  0  0  0  0  0  0  0
   -5.9218    5.4804    4.1441 N   0  0  0  0  0  0  0  0  0  0  0  0
   -6.3132    4.3414    3.3443 C   0  0  2  0  0  0  0  0  0  0  0  0
   -5.1642    3.3675    3.3480 C   0  0  0  0  0  0  0  0  0  0  0  0
   -4.0306    3.7691    3.7902 O   0  0  0  0  0  0  0  0  0  0  0  0
   -6.4703    4.9258    1.9266 C   0  0  0  0  0  0  0  0  0  0  0  0
   -6.2578    3.8778    0.8662 C   0  0  0  0  0  0  0  0  0  0  0  0
   -7.3838    3.6519   -0.0331 C   0  0  0  0  0  0  0  0  0  0  0  0
   -7.4998    2.6958   -0.7960 O   0  0  0  0  0  0  0  0  0  0  0  0
   -8.4504    4.6023   -0.0517 O   0  0  0  0  0  0  0  0  0  0  0  0
   -5.2513    2.0388    2.8928 N   0  0  0  0  0  0  0  0  0  0  0  0
   -4.3067    1.0000    2.6684 C   0  0  2  0  0  0  0  0  0  0  0  0
   -4.0642    0.6516    1.2295 C   0  0  0  0  0  0  0  0  0  0  0  0
   -4.7665    1.0859    0.2956 O   0  0  0  0  0  0  0  0  0  0  0  0
   -4.9557   -0.1712    3.3947 C   0  0  0  0  0  0  0  0  0  0  0  0
   -6.4511    0.1436    3.4285 C   0  0  0  0  0  0  0  0  0  0  0  0
   -6.5440    1.3957    2.5641 C   0  0  0  0  0  0  0  0  0  0  0  0
   -2.9886   -0.2073    0.9139 N   0  0  0  0  0  0  0  0  0  0  0  0
   -2.1285   -0.1477   -0.2287 C   0  0  2  0  0  0  0  0  0  0  0  0
   -2.5080   -1.2034   -1.1695 C   0  0  0  0  0  0  0  0  0  0  0  0
   -2.2185   -2.5315   -0.9195 O   0  0  0  0  0  0  0  0  0  0  0  0
   -0.7560   -0.5081    0.3339 C   0  0  0  0  0  0  0  0  0  0  0  0
   -1.0328   -1.3361    1.5591 C   0  0  0  0  0  0  0  0  0  0  0  0
   -2.5474   -1.3204    1.7261 C   0  0  0  0  0  0  0  0  0  0  0  0
   -3.1229   -0.9671   -2.2642 O   0  0  0  0  0  0  0  0  0  0  0  0
  2  1  1  1
  2  3  1  0
  2  5  1  0
  3  4  2  0
  3  9  1  0
  5  6  1  0
  6  7  1  6
  6  8  1  0
  9 10  1  0
 10 11  1  0
 10 13  1  6
 11 12  2  0
 11 15  1  0
 13 14  1  0
 16 15  1  1
 16 17  1  0
 16 19  1  0
 17 18  2  0
 17 22  1  0
 19 20  1  0
 19 21  1  6
 22 23  1  0
 23 24  1  0
 23 26  1  1
 24 25  2  0
 24 31  1  0
 26 27  1  0
 27 28  1  0
 28 29  2  0
 28 30  1  0
 31 32  1  0
 32 33  1  0
 32 35  1  6
 33 34  2  0
 33 39  1  0
 35 36  1  0
 36 37  1  1
 36 38  1  0
 39 40  1  0
 40 41  1  0
 40 43  1  1
 41 42  2  0
 41 45  1  0
 43 44  1  0
 46 45  1  1
 46 47  1  0
 46 54  1  0
 47 48  1  1
 47 49  1  0
 49 50  1  0
 50 51  1  1
 50 52  1  0
 50 53  2  0
 54 55  2  0
 54 56  1  0
 56 57  1  0
 57 58  1  0
 57 60  1  6
 58 59  2  0
 58 65  1  0
 60 61  1  0
 61 62  1  0
 62 63  2  0
 62 64  1  0
 65 66  1  0
 65 71  1  0
 66 67  1  6
 66 69  1  0
 67 68  2  0
 67 72  1  0
 69 70  1  0
 70 71  1  0
 72 73  1  0
 72 78  1  0
 73 74  1  6
 73 76  1  0
 74 75  1  0
 74 79  2  0
 76 77  1  0
 77 78  1  0
M  CHG  1   1   1
M  END
$$$$
