
     RDKit          3D

 79 80  0  0  0  0  0  0  0  0999 V2000
   -7.9409   -6.9559   13.3131 N   0  0  0  0  0  4  0  0  0  0  0  0
   -7.9437   -5.5015   13.1215 C   0  0  2  0  0  0  0  0  0  0  0  0
   -7.9211   -5.1716   11.6822 C   0  0  0  0  0  0  0  0  0  0  0  0
   -7.3896   -5.9420   10.8281 O   0  0  0  0  0  0  0  0  0  0  0  0
   -6.6977   -4.9726   13.8290 C   0  0  0  0  0  0  0  0  0  0  0  0
   -7.0364   -4.2885   15.1288 C   0  0  1  0  0  0  0  0  0  0  0  0
   -5.7580   -3.9611   15.8467 C   0  0  0  0  0  0  0  0  0  0  0  0
   -7.8188   -3.0053   14.8481 C   0  0  0  0  0  0  0  0  0  0  0  0
   -8.4928   -3.9823   11.1641 N   0  0  0  0  0  0  0  0  0  0  0  0
   -8.4385   -3.7129    9.7613 C   0  0  2  0  0  0  0  0  0  0  0  0
   -7.2771   -2.9007    9.3996 C   0  0  0  0  0  0  0  0  0  0  0  0
   -6.9606   -1.8945   10.1335 O   0  0  0  0  0  0  0  0  0  0  0  0
   -9.6996   -2.9585    9.3092 C   0  0  0  0  0  0  0  0  0  0  0  0
   -9.6850   -2.7217    7.9470 O   0  0  0  0  0  0  0  0  0  0  0  0
   -6.4639   -3.1489    8.2749 N   0  0  0  0  0  0  0  0  0  0  0  0
   -5.4519   -2.1636    7.9235 C   0  0  2  0  0  0  0  0  0  0  0  0
   -6.1878   -0.9655    7.4478 C   0  0  0  0  0  0  0  0  0  0  0  0
   -7.0532   -1.0304    6.5563 O   0  0  0  0  0  0  0  0  0  0  0  0
   -4.5047   -2.7126    6.8743 C   0  0  2  0  0  0  0  0  0  0  0  0
   -4.6242   -4.0939    6.8484 O   0  0  0  0  0  0  0  0  0  0  0  0
   -3.1038   -2.3649    7.3532 C   0  0  0  0  0  0  0  0  0  0  0  0
   -5.9034    0.3133    8.0408 N   0  0  0  0  0  0  0  0  0  0  0  0
   -6.4012    1.5335    7.4949 C   0  0  2  0  0  0  0  0  0  0  0  0
   -5.5386    2.1571    6.5165 C   0  0  0  0  0  0  0  0  0  0  0  0
   -4.3524    1.6850    6.4111 O   0  0  0  0  0  0  0  0  0  0  0  0
   -6.5386    2.5600    8.6237 C   0  0  0  0  0  0  0  0  0  0  0  0
   -7.7155    2.4308    9.4948 C   0  0  0  0  0  0  0  0  0  0  0  0
   -8.7405    1.4545    9.1422 C   0  0  0  0  0  0  0  0  0  0  0  0
   -8.7249    0.8429    8.0510 O   0  0  0  0  0  0  0  0  0  0  0  0
   -9.7883    1.1734   10.0289 O   0  0  0  0  0  0  0  0  0  0  0  0
   -5.8729    3.2338    5.6535 N   0  0  0  0  0  0  0  0  0  0  0  0
   -4.9093    3.7523    4.7305 C   0  0  2  0  0  0  0  0  0  0  0  0
   -4.0549    4.8180    5.3998 C   0  0  0  0  0  0  0  0  0  0  0  0
   -2.9092    4.9870    4.9746 O   0  0  0  0  0  0  0  0  0  0  0  0
   -5.3562    4.1892    3.3971 C   0  0  0  0  0  0  0  0  0  0  0  0
   -5.9532    3.2095    2.4641 C   0  0  1  0  0  0  0  0  0  0  0  0
   -4.9433    3.0310    1.2898 C   0  0  0  0  0  0  0  0  0  0  0  0
   -6.0682    1.8062    3.0413 C   0  0  0  0  0  0  0  0  0  0  0  0
   -4.6138    5.5635    6.4624 N   0  0  0  0  0  0  0  0  0  0  0  0
   -3.9695    6.6121    7.2017 C   0  0  2  0  0  0  0  0  0  0  0  0
   -2.9218    6.1294    8.1074 C   0  0  0  0  0  0  0  0  0  0  0  0
   -3.0958    5.0662    8.8105 O   0  0  0  0  0  0  0  0  0  0  0  0
   -5.0464    7.3700    8.0360 C   0  0  0  0  0  0  0  0  0  0  0  0
   -4.4140    8.4969    8.5405 O   0  0  0  0  0  0  0  0  0  0  0  0
   -1.6788    6.8105    8.2335 N   0  0  0  0  0  0  0  0  0  0  0  0
   -0.7626    6.5439    9.3130 C   0  0  1  0  0  0  0  0  0  0  0  0
    0.5432    7.2223    9.1628 C   0  0  1  0  0  0  0  0  0  0  0  0
    1.0027    7.0135    7.6847 C   0  0  0  0  0  0  0  0  0  0  0  0
    0.5510    8.5822    9.3156 O   0  0  0  0  0  0  0  0  0  0  0  0
    1.8125    9.4065    8.6124 P   0  0  1  0  0  5  0  0  0  0  0  0
    3.2752    8.7670    9.1506 O   0  0  0  0  0  0  0  0  0  0  0  0
    1.7744    9.3227    6.9170 O   0  0  0  0  0  0  0  0  0  0  0  0
    1.7814   10.8675    9.0917 O   0  0  0  0  0  0  0  0  0  0  0  0
   -1.3455    6.4882   10.6665 C   0  0  0  0  0  0  0  0  0  0  0  0
   -1.2668    5.4496   11.3643 O   0  0  0  0  0  0  0  0  0  0  0  0
   -2.0092    7.5935   11.2335 N   0  0  0  0  0  0  0  0  0  0  0  0
   -2.6027    7.6924   12.5481 C   0  0  2  0  0  0  0  0  0  0  0  0
   -3.7768    6.7498   12.5884 C   0  0  0  0  0  0  0  0  0  0  0  0
   -4.4352    6.5550   11.5066 O   0  0  0  0  0  0  0  0  0  0  0  0
   -3.1221    9.1426   12.6074 C   0  0  0  0  0  0  0  0  0  0  0  0
   -4.0080    9.3677   13.8041 C   0  0  0  0  0  0  0  0  0  0  0  0
   -4.5467   10.7158   13.9464 C   0  0  0  0  0  0  0  0  0  0  0  0
   -5.7154   11.0363   13.7435 O   0  0  0  0  0  0  0  0  0  0  0  0
   -3.6688   11.7680   14.3505 O   0  0  0  0  0  0  0  0  0  0  0  0
   -4.2041    6.0666   13.7421 N   0  0  0  0  0  0  0  0  0  0  0  0
   -5.2331    5.1245   14.0168 C   0  0  2  0  0  0  0  0  0  0  0  0
   -6.3691    5.6385   14.8510 C   0  0  0  0  0  0  0  0  0  0  0  0
   -6.2162    6.4520   15.7831 O   0  0  0  0  0  0  0  0  0  0  0  0
   -4.4699    4.0428   14.7702 C   0  0  0  0  0  0  0  0  0  0  0  0
   -3.2520    4.7427   15.3728 C   0  0  0  0  0  0  0  0  0  0  0  0
   -3.5192    6.2078   15.0473 C   0  0  0  0  0  0  0  0  0  0  0  0
   -7.6755    5.1829   14.5686 N   0  0  0  0  0  0  0  0  0  0  0  0
   -8.9143    5.8128   14.9115 C   0  0  2  0  0  0  0  0  0  0  0  0
   -9.5182    5.0997   16.0386 C   0  0  0  0  0  0  0  0  0  0  0  0
   -8.8980    4.0095   16.6190 O   0  0  0  0  0  0  0  0  0  0  0  0
   -9.7949    5.5658   13.6893 C   0  0  0  0  0  0  0  0  0  0  0  0
   -9.2428    4.3234   13.0452 C   0  0  0  0  0  0  0  0  0  0  0  0
   -7.9954    3.9707   13.8464 C   0  0  0  0  0  0  0  0  0  0  0  0
  -10.6397    5.4361   16.5500 O   0  0  0  0  0  0  0  0  0  0  0  0
  2  1  1  6
  2  3  1  0
  2  5  1  0
  3  4  2  0
  3  9  1  0
  5  6  1  0
  6  7  1  6
  6  8  1  0
  9 10  1  0
 10 11  1  0
 10 13  1  1
 11 12  2  0
 11 15  1  0
 13 14  1  0
 16 15  1  6
 16 17  1  0
 16 19  1  0
 17 18  2  0
 17 22  1  0
 19 20  1  0
 19 21  1  1
 22 23  1  0
 23 24  1  0
 23 26  1  1
 24 25  2  0
 24 31  1  0
 26 27  1  0
 27 28  1  0
 28 29  2  0
 28 30  1  0
 31 32  1  0
 32 33  1  0
 32 35  1  6
 33 34  2  0
 33 39  1  0
 35 36  1  0
 36 37  1  6
 36 38  1  0
 39 40  1  0
 40 41  1  0
 40 43  1  1
 41 42  2  0
 41 45  1  0
 43 44  1  0
 46 45  1  6
 46 47  1  0
 46 54  1  0
 47 48  1  6
 47 49  1  0
 49 50  1  0
 50 51  1  1
 50 52  1  0
 50 53  2  0
 54 55  2  0
 54 56  1  0
 56 57  1  0
 57 58  1  0
 57 60  1  6
 58 59  2  0
 58 65  1  0
 60 61  1  0
 61 62  1  0
 62 63  2  0
 62 64  1  0
 65 66  1  0
 65 71  1  0
 66 67  1  1
 66 69  1  0
 67 68  2  0
 67 72  1  0
 69 70  1  0
 70 71  1  0
 72 73  1  0
 72 78  1  0
 73 74  1  1
 73 76  1  0
 74 75  1  0
 74 79  2  0
 76 77  1  0
 77 78  1  0
M  CHG  1   1   1
M  END
$$$$
