
     RDKit          3D

 79 80  0  0  0  0  0  0  0  0999 V2000
  -11.5061   -2.0254    0.6556 N   0  0  0  0  0  4  0  0  0  0  0  0
  -11.0837   -0.7703    1.2868 C   0  0  2  0  0  0  0  0  0  0  0  0
   -9.6928   -0.8800    1.7708 C   0  0  0  0  0  0  0  0  0  0  0  0
   -9.3348   -1.7913    2.5750 O   0  0  0  0  0  0  0  0  0  0  0  0
  -12.0525   -0.5229    2.4413 C   0  0  0  0  0  0  0  0  0  0  0  0
  -11.7251    0.7444    3.1888 C   0  0  1  0  0  0  0  0  0  0  0  0
  -12.3525    1.9034    2.4676 C   0  0  0  0  0  0  0  0  0  0  0  0
  -12.2736    0.6597    4.6134 C   0  0  0  0  0  0  0  0  0  0  0  0
   -8.6725    0.0176    1.3668 N   0  0  0  0  0  0  0  0  0  0  0  0
   -7.3007   -0.2978    1.6157 C   0  0  2  0  0  0  0  0  0  0  0  0
   -6.9213   -0.0526    3.0068 C   0  0  0  0  0  0  0  0  0  0  0  0
   -7.6346    0.7417    3.7222 O   0  0  0  0  0  0  0  0  0  0  0  0
   -6.3826    0.5513    0.7210 C   0  0  0  0  0  0  0  0  0  0  0  0
   -5.9501   -0.1635   -0.3808 O   0  0  0  0  0  0  0  0  0  0  0  0
   -5.8010   -0.6382    3.6311 N   0  0  0  0  0  0  0  0  0  0  0  0
   -5.4656   -0.2177    4.9835 C   0  0  2  0  0  0  0  0  0  0  0  0
   -4.7121    1.0538    4.8471 C   0  0  0  0  0  0  0  0  0  0  0  0
   -3.5391    1.1744    5.2439 O   0  0  0  0  0  0  0  0  0  0  0  0
   -4.6651   -1.2883    5.6993 C   0  0  2  0  0  0  0  0  0  0  0  0
   -3.8053   -1.8826    4.7881 O   0  0  0  0  0  0  0  0  0  0  0  0
   -5.6741   -2.3319    6.1522 C   0  0  0  0  0  0  0  0  0  0  0  0
   -5.3497    2.1836    4.2266 N   0  0  0  0  0  0  0  0  0  0  0  0
   -4.8164    3.5035    4.3171 C   0  0  2  0  0  0  0  0  0  0  0  0
   -4.5655    3.9655    5.6639 C   0  0  0  0  0  0  0  0  0  0  0  0
   -3.3789    3.8001    6.1173 O   0  0  0  0  0  0  0  0  0  0  0  0
   -5.8354    4.4890    3.7362 C   0  0  0  0  0  0  0  0  0  0  0  0
   -5.9920    4.4926    2.2746 C   0  0  0  0  0  0  0  0  0  0  0  0
   -7.0623    5.2930    1.6898 C   0  0  0  0  0  0  0  0  0  0  0  0
   -7.2825    5.3057    0.4584 O   0  0  0  0  0  0  0  0  0  0  0  0
   -7.8833    6.0841    2.5042 O   0  0  0  0  0  0  0  0  0  0  0  0
   -5.4965    4.5920    6.5338 N   0  0  0  0  0  0  0  0  0  0  0  0
   -5.1094    5.7241    7.3198 C   0  0  2  0  0  0  0  0  0  0  0  0
   -6.1564    6.0121    8.3850 C   0  0  0  0  0  0  0  0  0  0  0  0
   -6.0420    7.0532    9.0369 O   0  0  0  0  0  0  0  0  0  0  0  0
   -4.6901    6.9605    6.6386 C   0  0  0  0  0  0  0  0  0  0  0  0
   -4.2144    8.1130    7.4337 C   0  0  1  0  0  0  0  0  0  0  0  0
   -4.8529    9.3892    6.8055 C   0  0  0  0  0  0  0  0  0  0  0  0
   -4.7378    8.1286    8.8624 C   0  0  0  0  0  0  0  0  0  0  0  0
   -7.2066    5.0846    8.5687 N   0  0  0  0  0  0  0  0  0  0  0  0
   -8.1299    5.0459    9.6675 C   0  0  2  0  0  0  0  0  0  0  0  0
   -7.4779    4.8986   10.9730 C   0  0  0  0  0  0  0  0  0  0  0  0
   -7.3003    5.9159   11.7403 O   0  0  0  0  0  0  0  0  0  0  0  0
   -9.1091    3.8516    9.4560 C   0  0  0  0  0  0  0  0  0  0  0  0
   -8.3309    2.7050    9.5193 O   0  0  0  0  0  0  0  0  0  0  0  0
   -7.0291    3.6313   11.4391 N   0  0  0  0  0  0  0  0  0  0  0  0
   -6.1625    3.4959   12.5821 C   0  0  1  0  0  0  0  0  0  0  0  0
   -6.7790    2.7630   13.7094 C   0  0  1  0  0  0  0  0  0  0  0  0
   -8.2789    2.5300   13.3411 C   0  0  0  0  0  0  0  0  0  0  0  0
   -6.3062    1.5026   13.9557 O   0  0  0  0  0  0  0  0  0  0  0  0
   -7.0228    0.6651   15.2009 P   0  0  1  0  0  5  0  0  0  0  0  0
   -6.9448    1.5783   16.6145 O   0  0  0  0  0  0  0  0  0  0  0  0
   -8.6492    0.2976   14.8811 O   0  0  0  0  0  0  0  0  0  0  0  0
   -6.2128   -0.6139   15.4717 O   0  0  0  0  0  0  0  0  0  0  0  0
   -4.7407    3.2278   12.2964 C   0  0  0  0  0  0  0  0  0  0  0  0
   -4.0768    2.4309   13.0007 O   0  0  0  0  0  0  0  0  0  0  0  0
   -4.0706    3.8484   11.2243 N   0  0  0  0  0  0  0  0  0  0  0  0
   -2.6776    3.7233   10.8580 C   0  0  2  0  0  0  0  0  0  0  0  0
   -2.1254    5.1145   10.6902 C   0  0  0  0  0  0  0  0  0  0  0  0
   -2.0053    5.5798    9.5023 O   0  0  0  0  0  0  0  0  0  0  0  0
   -2.7215    3.0320    9.4809 C   0  0  0  0  0  0  0  0  0  0  0  0
   -1.3386    2.7764    8.9424 C   0  0  0  0  0  0  0  0  0  0  0  0
   -0.8520    3.7450    7.9664 C   0  0  0  0  0  0  0  0  0  0  0  0
    0.2367    3.6926    7.3990 O   0  0  0  0  0  0  0  0  0  0  0  0
   -1.6846    4.8546    7.6247 O   0  0  0  0  0  0  0  0  0  0  0  0
   -1.7270    5.9420   11.7564 N   0  0  0  0  0  0  0  0  0  0  0  0
   -2.4090    6.5842   12.8260 C   0  0  2  0  0  0  0  0  0  0  0  0
   -2.4963    8.0786   12.7275 C   0  0  0  0  0  0  0  0  0  0  0  0
   -2.0539    8.7245   11.7574 O   0  0  0  0  0  0  0  0  0  0  0  0
   -1.5572    6.1813   14.0230 C   0  0  0  0  0  0  0  0  0  0  0  0
   -0.1705    5.8764   13.4569 C   0  0  0  0  0  0  0  0  0  0  0  0
   -0.3100    6.2974   11.9984 C   0  0  0  0  0  0  0  0  0  0  0  0
   -3.1102    8.7909   13.7810 N   0  0  0  0  0  0  0  0  0  0  0  0
   -3.4101   10.1896   13.8325 C   0  0  2  0  0  0  0  0  0  0  0  0
   -2.4394   10.8558   14.7028 C   0  0  0  0  0  0  0  0  0  0  0  0
   -1.4917   10.1392   15.4088 O   0  0  0  0  0  0  0  0  0  0  0  0
   -4.7649   10.2424   14.5338 C   0  0  0  0  0  0  0  0  0  0  0  0
   -4.8313    8.9911   15.3664 C   0  0  0  0  0  0  0  0  0  0  0  0
   -3.5710    8.2068   15.0220 C   0  0  0  0  0  0  0  0  0  0  0  0
   -2.4069   12.1232   14.8612 O   0  0  0  0  0  0  0  0  0  0  0  0
  2  1  1  1
  2  3  1  0
  2  5  1  0
  3  4  2  0
  3  9  1  0
  5  6  1  0
  6  7  1  6
  6  8  1  0
  9 10  1  0
 10 11  1  0
 10 13  1  6
 11 12  2  0
 11 15  1  0
 13 14  1  0
 16 15  1  6
 16 17  1  0
 16 19  1  0
 17 18  2  0
 17 22  1  0
 19 20  1  0
 19 21  1  6
 22 23  1  0
 23 24  1  0
 23 26  1  1
 24 25  2  0
 24 31  1  0
 26 27  1  0
 27 28  1  0
 28 29  2  0
 28 30  1  0
 31 32  1  0
 32 33  1  0
 32 35  1  6
 33 34  2  0
 33 39  1  0
 35 36  1  0
 36 37  1  6
 36 38  1  0
 39 40  1  0
 40 41  1  0
 40 43  1  6
 41 42  2  0
 41 45  1  0
 43 44  1  0
 46 45  1  6
 46 47  1  0
 46 54  1  0
 47 48  1  6
 47 49  1  0
 49 50  1  0
 50 51  1  1
 50 52  1  0
 50 53  2  0
 54 55  2  0
 54 56  1  0
 56 57  1  0
 57 58  1  0
 57 60  1  6
 58 59  2  0
 58 65  1  0
 60 61  1  0
 61 62  1  0
 62 63  2  0
 62 64  1  0
 65 66  1  0
 65 71  1  0
 66 67  1  6
 66 69  1  0
 67 68  2  0
 67 72  1  0
 69 70  1  0
 70 71  1  0
 72 73  1  0
 72 78  1  0
 73 74  1  1
 73 76  1  0
 74 75  1  0
 74 79  2  0
 76 77  1  0
 77 78  1  0
M  CHG  1   1   1
M  END
$$$$
