
     RDKit          3D

 79 80  0  0  0  0  0  0  0  0999 V2000
  -14.5686   -5.1163   10.9275 N   0  0  0  0  0  4  0  0  0  0  0  0
  -13.3976   -5.1148   11.8112 C   0  0  2  0  0  0  0  0  0  0  0  0
  -12.8400   -3.7520   11.9248 C   0  0  0  0  0  0  0  0  0  0  0  0
  -12.7635   -2.9757   10.9264 O   0  0  0  0  0  0  0  0  0  0  0  0
  -12.3871   -6.0748   11.1869 C   0  0  0  0  0  0  0  0  0  0  0  0
  -12.7560   -7.5160   11.4293 C   0  0  1  0  0  0  0  0  0  0  0  0
  -11.8179   -8.3904   10.6467 C   0  0  0  0  0  0  0  0  0  0  0  0
  -12.6419   -7.8343   12.9204 C   0  0  0  0  0  0  0  0  0  0  0  0
  -12.3614   -3.2244   13.1506 N   0  0  0  0  0  0  0  0  0  0  0  0
  -11.7377   -1.9386   13.1826 C   0  0  2  0  0  0  0  0  0  0  0  0
  -10.3462   -1.9886   12.7349 C   0  0  0  0  0  0  0  0  0  0  0  0
   -9.5925   -2.9510   13.1312 O   0  0  0  0  0  0  0  0  0  0  0  0
  -11.7524   -1.3690   14.6106 C   0  0  0  0  0  0  0  0  0  0  0  0
  -11.1248   -0.1383   14.6697 O   0  0  0  0  0  0  0  0  0  0  0  0
   -9.7601   -1.0315   11.8815 N   0  0  0  0  0  0  0  0  0  0  0  0
   -8.3400   -1.1484   11.5847 C   0  0  2  0  0  0  0  0  0  0  0  0
   -7.6260   -0.5060   12.7163 C   0  0  0  0  0  0  0  0  0  0  0  0
   -8.2075    0.2283   13.5351 O   0  0  0  0  0  0  0  0  0  0  0  0
   -8.0112   -0.5009   10.2535 C   0  0  2  0  0  0  0  0  0  0  0  0
   -6.6633   -0.6911    9.9888 O   0  0  0  0  0  0  0  0  0  0  0  0
   -8.2536    0.9885   10.4420 C   0  0  0  0  0  0  0  0  0  0  0  0
   -6.2179   -0.7456   12.8835 N   0  0  0  0  0  0  0  0  0  0  0  0
   -5.4388   -0.0562   13.8594 C   0  0  2  0  0  0  0  0  0  0  0  0
   -4.8016    1.1516   13.3843 C   0  0  0  0  0  0  0  0  0  0  0  0
   -5.2432    2.2583   13.8546 O   0  0  0  0  0  0  0  0  0  0  0  0
   -4.2919   -0.9668   14.3092 C   0  0  0  0  0  0  0  0  0  0  0  0
   -3.6463   -0.6341   15.5872 C   0  0  0  0  0  0  0  0  0  0  0  0
   -4.4908   -0.3597   16.7446 C   0  0  0  0  0  0  0  0  0  0  0  0
   -5.1382   -1.2619   17.3207 O   0  0  0  0  0  0  0  0  0  0  0  0
   -4.6038    0.9429   17.2483 O   0  0  0  0  0  0  0  0  0  0  0  0
   -3.7305    1.2378   12.4563 N   0  0  0  0  0  0  0  0  0  0  0  0
   -2.8715    2.3829   12.4413 C   0  0  2  0  0  0  0  0  0  0  0  0
   -2.5494    2.7845   11.0100 C   0  0  0  0  0  0  0  0  0  0  0  0
   -2.1470    1.9059   10.2431 O   0  0  0  0  0  0  0  0  0  0  0  0
   -1.6600    2.3816   13.2785 C   0  0  0  0  0  0  0  0  0  0  0  0
   -0.7747    3.5659   13.2926 C   0  0  1  0  0  0  0  0  0  0  0  0
   -1.5262    4.6820   14.0805 C   0  0  0  0  0  0  0  0  0  0  0  0
    0.5000    3.3677   14.0996 C   0  0  0  0  0  0  0  0  0  0  0  0
   -2.7341    4.1326   10.6284 N   0  0  0  0  0  0  0  0  0  0  0  0
   -2.4293    4.7076    9.3487 C   0  0  2  0  0  0  0  0  0  0  0  0
   -2.7056    6.1461    9.2741 C   0  0  0  0  0  0  0  0  0  0  0  0
   -3.0208    6.8129   10.3282 O   0  0  0  0  0  0  0  0  0  0  0  0
   -3.2701    3.9761    8.2587 C   0  0  0  0  0  0  0  0  0  0  0  0
   -4.5666    4.4501    8.3959 O   0  0  0  0  0  0  0  0  0  0  0  0
   -2.6267    6.8536    8.0420 N   0  0  0  0  0  0  0  0  0  0  0  0
   -1.8202    8.0372    7.8860 C   0  0  1  0  0  0  0  0  0  0  0  0
   -0.7586    8.1694    8.9076 C   0  0  1  0  0  0  0  0  0  0  0  0
   -1.0178    9.5079    9.6696 C   0  0  0  0  0  0  0  0  0  0  0  0
   -0.7408    7.2288    9.9015 O   0  0  0  0  0  0  0  0  0  0  0  0
    0.6195    7.1757   10.8565 P   0  0  1  0  0  5  0  0  0  0  0  0
    0.4723    5.9295   11.9806 O   0  0  0  0  0  0  0  0  0  0  0  0
    2.0349    6.9269    9.9524 O   0  0  0  0  0  0  0  0  0  0  0  0
    0.7081    8.4781   11.6697 O   0  0  0  0  0  0  0  0  0  0  0  0
   -1.4807    8.4194    6.5027 C   0  0  0  0  0  0  0  0  0  0  0  0
   -0.4600    9.1025    6.2506 O   0  0  0  0  0  0  0  0  0  0  0  0
   -2.2808    8.0335    5.4098 N   0  0  0  0  0  0  0  0  0  0  0  0
   -3.2280    8.8419    4.6753 C   0  0  2  0  0  0  0  0  0  0  0  0
   -3.7664    9.8830    5.6213 C   0  0  0  0  0  0  0  0  0  0  0  0
   -4.4010    9.4865    6.6615 O   0  0  0  0  0  0  0  0  0  0  0  0
   -4.3571    7.8536    4.3225 C   0  0  0  0  0  0  0  0  0  0  0  0
   -5.4371    8.5116    3.5050 C   0  0  0  0  0  0  0  0  0  0  0  0
   -6.4894    9.1755    4.2663 C   0  0  0  0  0  0  0  0  0  0  0  0
   -7.5131    8.6355    4.6790 O   0  0  0  0  0  0  0  0  0  0  0  0
   -6.3470   10.5645    4.5694 O   0  0  0  0  0  0  0  0  0  0  0  0
   -3.6212   11.2706    5.4373 N   0  0  0  0  0  0  0  0  0  0  0  0
   -3.6910   12.4010    6.2970 C   0  0  2  0  0  0  0  0  0  0  0  0
   -4.8829   13.2893    6.0951 C   0  0  0  0  0  0  0  0  0  0  0  0
   -5.2924   13.6348    4.9695 O   0  0  0  0  0  0  0  0  0  0  0  0
   -2.4104   13.1433    5.9374 C   0  0  0  0  0  0  0  0  0  0  0  0
   -2.0631   12.6998    4.5165 C   0  0  0  0  0  0  0  0  0  0  0  0
   -3.2775   11.8654    4.1256 C   0  0  0  0  0  0  0  0  0  0  0  0
   -5.5781   13.7566    7.2320 N   0  0  0  0  0  0  0  0  0  0  0  0
   -6.9556   14.1362    7.3197 C   0  0  2  0  0  0  0  0  0  0  0  0
   -7.0480   15.5967    7.3625 C   0  0  0  0  0  0  0  0  0  0  0  0
   -6.0529   16.3667    7.9341 O   0  0  0  0  0  0  0  0  0  0  0  0
   -7.3883   13.6102    8.6858 C   0  0  0  0  0  0  0  0  0  0  0  0
   -6.1284   13.5472    9.5055 C   0  0  0  0  0  0  0  0  0  0  0  0
   -5.0025   13.9213    8.5491 C   0  0  0  0  0  0  0  0  0  0  0  0
   -8.0395   16.2422    6.8800 O   0  0  0  0  0  0  0  0  0  0  0  0
  2  1  1  6
  2  3  1  0
  2  5  1  0
  3  4  2  0
  3  9  1  0
  5  6  1  0
  6  7  1  6
  6  8  1  0
  9 10  1  0
 10 11  1  0
 10 13  1  1
 11 12  2  0
 11 15  1  0
 13 14  1  0
 16 15  1  1
 16 17  1  0
 16 19  1  0
 17 18  2  0
 17 22  1  0
 19 20  1  0
 19 21  1  1
 22 23  1  0
 23 24  1  0
 23 26  1  6
 24 25  2  0
 24 31  1  0
 26 27  1  0
 27 28  1  0
 28 29  2  0
 28 30  1  0
 31 32  1  0
 32 33  1  0
 32 35  1  1
 33 34  2  0
 33 39  1  0
 35 36  1  0
 36 37  1  1
 36 38  1  0
 39 40  1  0
 40 41  1  0
 40 43  1  6
 41 42  2  0
 41 45  1  0
 43 44  1  0
 46 45  1  6
 46 47  1  0
 46 54  1  0
 47 48  1  1
 47 49  1  0
 49 50  1  0
 50 51  1  1
 50 52  1  0
 50 53  2  0
 54 55  2  0
 54 56  1  0
 56 57  1  0
 57 58  1  0
 57 60  1  1
 58 59  2  0
 58 65  1  0
 60 61  1  0
 61 62  1  0
 62 63  2  0
 62 64  1  0
 65 66  1  0
 65 71  1  0
 66 67  1  6
 66 69  1  0
 67 68  2  0
 67 72  1  0
 69 70  1  0
 70 71  1  0
 72 73  1  0
 72 78  1  0
 73 74  1  1
 73 76  1  0
 74 75  1  0
 74 79  2  0
 76 77  1  0
 77 78  1  0
M  CHG  1   1   1
M  END
$$$$
