
     RDKit          3D

 79 80  0  0  0  0  0  0  0  0999 V2000
  -12.1846   -3.0730   16.6825 N   0  0  0  0  0  4  0  0  0  0  0  0
  -11.3807   -3.9388   15.8130 C   0  0  2  0  0  0  0  0  0  0  0  0
  -10.9228   -3.1921   14.6240 C   0  0  0  0  0  0  0  0  0  0  0  0
  -11.7248   -2.5285   13.9017 O   0  0  0  0  0  0  0  0  0  0  0  0
  -12.2819   -5.1070   15.4184 C   0  0  0  0  0  0  0  0  0  0  0  0
  -11.5363   -6.1502   14.6260 C   0  0  1  0  0  0  0  0  0  0  0  0
  -12.4567   -7.3104   14.3734 C   0  0  0  0  0  0  0  0  0  0  0  0
  -11.0729   -5.5548   13.2962 C   0  0  0  0  0  0  0  0  0  0  0  0
   -9.5648   -3.1646   14.2180 N   0  0  0  0  0  0  0  0  0  0  0  0
   -9.1362   -2.2447   13.2113 C   0  0  2  0  0  0  0  0  0  0  0  0
   -7.7259   -2.4215   12.8661 C   0  0  0  0  0  0  0  0  0  0  0  0
   -7.1169   -3.4901   13.2382 O   0  0  0  0  0  0  0  0  0  0  0  0
   -9.3253   -0.7960   13.6906 C   0  0  0  0  0  0  0  0  0  0  0  0
  -10.5849   -0.3205   13.3755 O   0  0  0  0  0  0  0  0  0  0  0  0
   -6.9704   -1.4788   12.1393 N   0  0  0  0  0  0  0  0  0  0  0  0
   -5.5832   -1.7944   11.8322 C   0  0  2  0  0  0  0  0  0  0  0  0
   -4.8621   -0.4977   11.7930 C   0  0  0  0  0  0  0  0  0  0  0  0
   -5.3256    0.5007   11.2130 O   0  0  0  0  0  0  0  0  0  0  0  0
   -5.4785   -2.5521   10.5228 C   0  0  2  0  0  0  0  0  0  0  0  0
   -5.7270   -1.6720    9.4803 O   0  0  0  0  0  0  0  0  0  0  0  0
   -6.5929   -3.5865   10.5483 C   0  0  0  0  0  0  0  0  0  0  0  0
   -3.5908   -0.3820   12.4550 N   0  0  0  0  0  0  0  0  0  0  0  0
   -2.7894    0.7946   12.3647 C   0  0  2  0  0  0  0  0  0  0  0  0
   -2.5460    1.2610   11.0180 C   0  0  0  0  0  0  0  0  0  0  0  0
   -2.7335    2.5090   10.7985 O   0  0  0  0  0  0  0  0  0  0  0  0
   -1.4034    0.4940   12.9439 C   0  0  0  0  0  0  0  0  0  0  0  0
   -1.3161    0.3406   14.4032 C   0  0  0  0  0  0  0  0  0  0  0  0
   -1.8717    1.3910   15.2494 C   0  0  0  0  0  0  0  0  0  0  0  0
   -2.0603    1.2238   16.4747 O   0  0  0  0  0  0  0  0  0  0  0  0
   -2.2175    2.6342   14.7033 O   0  0  0  0  0  0  0  0  0  0  0  0
   -2.1119    0.4800    9.9146 N   0  0  0  0  0  0  0  0  0  0  0  0
   -1.9649    1.0703    8.6187 C   0  0  2  0  0  0  0  0  0  0  0  0
   -3.0965    0.6276    7.7037 C   0  0  0  0  0  0  0  0  0  0  0  0
   -3.4991   -0.5339    7.8080 O   0  0  0  0  0  0  0  0  0  0  0  0
   -0.6635    0.9840    7.9349 C   0  0  0  0  0  0  0  0  0  0  0  0
   -0.6088    0.6281    6.5006 C   0  0  1  0  0  0  0  0  0  0  0  0
    0.8914    0.6811    6.0792 C   0  0  0  0  0  0  0  0  0  0  0  0
   -1.0010   -0.8137    6.2124 C   0  0  0  0  0  0  0  0  0  0  0  0
   -3.6339    1.5639    6.7917 N   0  0  0  0  0  0  0  0  0  0  0  0
   -4.9319    1.5127    6.1803 C   0  0  2  0  0  0  0  0  0  0  0  0
   -5.2060    2.6501    5.2959 C   0  0  0  0  0  0  0  0  0  0  0  0
   -4.2660    3.4562    4.9471 O   0  0  0  0  0  0  0  0  0  0  0  0
   -6.0125    1.4760    7.3032 C   0  0  0  0  0  0  0  0  0  0  0  0
   -7.2269    1.6986    6.6708 O   0  0  0  0  0  0  0  0  0  0  0  0
   -6.5121    2.8963    4.7874 N   0  0  0  0  0  0  0  0  0  0  0  0
   -6.7851    3.9582    3.8528 C   0  0  1  0  0  0  0  0  0  0  0  0
   -7.4711    3.5036    2.6237 C   0  0  1  0  0  0  0  0  0  0  0  0
   -6.5566    2.4265    1.9582 C   0  0  0  0  0  0  0  0  0  0  0  0
   -8.6658    2.8569    2.7894 O   0  0  0  0  0  0  0  0  0  0  0  0
   -9.5670    2.5876    1.4180 P   0  0  1  0  0  5  0  0  0  0  0  0
  -10.8086    1.5022    1.7620 O   0  0  0  0  0  0  0  0  0  0  0  0
  -10.2490    4.0152    0.8020 O   0  0  0  0  0  0  0  0  0  0  0  0
   -8.6790    1.9034    0.3651 O   0  0  0  0  0  0  0  0  0  0  0  0
   -7.2145    5.2447    4.4320 C   0  0  0  0  0  0  0  0  0  0  0  0
   -8.1214    5.9259    3.8978 O   0  0  0  0  0  0  0  0  0  0  0  0
   -6.6313    5.7604    5.6056 N   0  0  0  0  0  0  0  0  0  0  0  0
   -7.2811    6.4875    6.6730 C   0  0  2  0  0  0  0  0  0  0  0  0
   -8.3434    7.3551    6.0504 C   0  0  0  0  0  0  0  0  0  0  0  0
   -9.5275    6.8782    5.9399 O   0  0  0  0  0  0  0  0  0  0  0  0
   -6.1641    7.3886    7.2354 C   0  0  0  0  0  0  0  0  0  0  0  0
   -6.6691    8.2745    8.3436 C   0  0  0  0  0  0  0  0  0  0  0  0
   -5.6742    9.1464    8.9582 C   0  0  0  0  0  0  0  0  0  0  0  0
   -5.8153   10.3504    9.1590 O   0  0  0  0  0  0  0  0  0  0  0  0
   -4.4261    8.5842    9.3674 O   0  0  0  0  0  0  0  0  0  0  0  0
   -8.1211    8.6612    5.5762 N   0  0  0  0  0  0  0  0  0  0  0  0
   -8.5902    9.4081    4.4609 C   0  0  2  0  0  0  0  0  0  0  0  0
   -7.5680    9.6884    3.3993 C   0  0  0  0  0  0  0  0  0  0  0  0
   -6.3617    9.3985    3.5214 O   0  0  0  0  0  0  0  0  0  0  0  0
   -9.0361   10.7058    5.1224 C   0  0  0  0  0  0  0  0  0  0  0  0
   -8.2291   10.8060    6.4167 C   0  0  0  0  0  0  0  0  0  0  0  0
   -7.2648    9.6316    6.2957 C   0  0  0  0  0  0  0  0  0  0  0  0
   -7.9889   10.3080    2.2022 N   0  0  0  0  0  0  0  0  0  0  0  0
   -7.2166   10.5407    1.0197 C   0  0  2  0  0  0  0  0  0  0  0  0
   -6.8489   11.9566    0.9588 C   0  0  0  0  0  0  0  0  0  0  0  0
   -6.4503   12.6482    2.0870 O   0  0  0  0  0  0  0  0  0  0  0  0
   -8.2038   10.2753   -0.1139 C   0  0  0  0  0  0  0  0  0  0  0  0
   -9.5644   10.5315    0.4749 C   0  0  0  0  0  0  0  0  0  0  0  0
   -9.3207   10.8151    1.9522 C   0  0  0  0  0  0  0  0  0  0  0  0
   -6.8719   12.6319   -0.1256 O   0  0  0  0  0  0  0  0  0  0  0  0
  2  1  1  1
  2  3  1  0
  2  5  1  0
  3  4  2  0
  3  9  1  0
  5  6  1  0
  6  7  1  6
  6  8  1  0
  9 10  1  0
 10 11  1  0
 10 13  1  1
 11 12  2  0
 11 15  1  0
 13 14  1  0
 16 15  1  6
 16 17  1  0
 16 19  1  0
 17 18  2  0
 17 22  1  0
 19 20  1  0
 19 21  1  1
 22 23  1  0
 23 24  1  0
 23 26  1  6
 24 25  2  0
 24 31  1  0
 26 27  1  0
 27 28  1  0
 28 29  2  0
 28 30  1  0
 31 32  1  0
 32 33  1  0
 32 35  1  6
 33 34  2  0
 33 39  1  0
 35 36  1  0
 36 37  1  1
 36 38  1  0
 39 40  1  0
 40 41  1  0
 40 43  1  1
 41 42  2  0
 41 45  1  0
 43 44  1  0
 46 45  1  1
 46 47  1  0
 46 54  1  0
 47 48  1  1
 47 49  1  0
 49 50  1  0
 50 51  1  1
 50 52  1  0
 50 53  2  0
 54 55  2  0
 54 56  1  0
 56 57  1  0
 57 58  1  0
 57 60  1  6
 58 59  2  0
 58 65  1  0
 60 61  1  0
 61 62  1  0
 62 63  2  0
 62 64  1  0
 65 66  1  0
 65 71  1  0
 66 67  1  6
 66 69  1  0
 67 68  2  0
 67 72  1  0
 69 70  1  0
 70 71  1  0
 72 73  1  0
 72 78  1  0
 73 74  1  1
 73 76  1  0
 74 75  1  0
 74 79  2  0
 76 77  1  0
 77 78  1  0
M  CHG  1   1   1
M  END
$$$$
