
     RDKit          3D

 79 80  0  0  0  0  0  0  0  0999 V2000
    1.7189    7.2395   20.2173 N   0  0  0  0  0  4  0  0  0  0  0  0
    0.6542    7.2485   19.2081 C   0  0  2  0  0  0  0  0  0  0  0  0
    0.9024    6.2094   18.1885 C   0  0  0  0  0  0  0  0  0  0  0  0
    1.5211    5.1381   18.4627 O   0  0  0  0  0  0  0  0  0  0  0  0
    0.6621    8.6441   18.5878 C   0  0  0  0  0  0  0  0  0  0  0  0
    0.7443    9.7250   19.6352 C   0  0  1  0  0  0  0  0  0  0  0  0
    0.9599   11.0437   18.9487 C   0  0  0  0  0  0  0  0  0  0  0  0
   -0.5551    9.7637   20.4400 C   0  0  0  0  0  0  0  0  0  0  0  0
    0.4639    6.3386   16.8466 N   0  0  0  0  0  0  0  0  0  0  0  0
    0.2658    5.1738   16.0420 C   0  0  2  0  0  0  0  0  0  0  0  0
   -0.1473    5.5077   14.6792 C   0  0  0  0  0  0  0  0  0  0  0  0
   -1.3654    5.8522   14.4583 O   0  0  0  0  0  0  0  0  0  0  0  0
   -0.8196    4.2742   16.6557 C   0  0  0  0  0  0  0  0  0  0  0  0
   -0.9739    3.1051   15.9338 O   0  0  0  0  0  0  0  0  0  0  0  0
    0.7167    5.4749   13.5656 N   0  0  0  0  0  0  0  0  0  0  0  0
    0.2078    5.9373   12.2828 C   0  0  2  0  0  0  0  0  0  0  0  0
   -0.6789    4.8602   11.7762 C   0  0  0  0  0  0  0  0  0  0  0  0
   -0.2654    3.7057   11.5665 O   0  0  0  0  0  0  0  0  0  0  0  0
    1.3459    6.2436   11.3286 C   0  0  2  0  0  0  0  0  0  0  0  0
    2.1582    7.2096   11.9030 O   0  0  0  0  0  0  0  0  0  0  0  0
    0.7014    6.8403   10.0873 C   0  0  0  0  0  0  0  0  0  0  0  0
   -2.0651    5.1517   11.5285 N   0  0  0  0  0  0  0  0  0  0  0  0
   -2.9460    4.2061   10.9246 C   0  0  2  0  0  0  0  0  0  0  0  0
   -2.3512    3.4048    9.8784 C   0  0  0  0  0  0  0  0  0  0  0  0
   -1.1574    2.9871   10.0818 O   0  0  0  0  0  0  0  0  0  0  0  0
   -4.0948    4.9620   10.2496 C   0  0  0  0  0  0  0  0  0  0  0  0
   -5.2852    5.2253   11.0707 C   0  0  0  0  0  0  0  0  0  0  0  0
   -5.1130    5.8994   12.3529 C   0  0  0  0  0  0  0  0  0  0  0  0
   -5.9228    6.7605   12.7624 O   0  0  0  0  0  0  0  0  0  0  0  0
   -4.0167    5.5980   13.1719 O   0  0  0  0  0  0  0  0  0  0  0  0
   -2.9568    3.0253    8.6515 N   0  0  0  0  0  0  0  0  0  0  0  0
   -2.2533    2.1987    7.7182 C   0  0  2  0  0  0  0  0  0  0  0  0
   -3.0936    1.9756    6.4702 C   0  0  0  0  0  0  0  0  0  0  0  0
   -3.0740    2.8501    5.6001 O   0  0  0  0  0  0  0  0  0  0  0  0
   -1.6528    0.9385    8.1871 C   0  0  0  0  0  0  0  0  0  0  0  0
   -0.7862    0.1549    7.2805 C   0  0  1  0  0  0  0  0  0  0  0  0
    0.0688   -0.7903    8.1785 C   0  0  0  0  0  0  0  0  0  0  0  0
   -1.5502   -0.8107    6.3865 C   0  0  0  0  0  0  0  0  0  0  0  0
   -3.8434    0.7824    6.3644 N   0  0  0  0  0  0  0  0  0  0  0  0
   -4.8453    0.4874    5.3793 C   0  0  2  0  0  0  0  0  0  0  0  0
   -5.2090    1.6427    4.5522 C   0  0  0  0  0  0  0  0  0  0  0  0
   -5.3893    2.8018    5.0805 O   0  0  0  0  0  0  0  0  0  0  0  0
   -6.1223   -0.0340    6.1055 C   0  0  0  0  0  0  0  0  0  0  0  0
   -6.0153   -1.4170    6.1186 O   0  0  0  0  0  0  0  0  0  0  0  0
   -5.3657    1.5258    3.1427 N   0  0  0  0  0  0  0  0  0  0  0  0
   -5.7686    2.6375    2.3196 C   0  0  1  0  0  0  0  0  0  0  0  0
   -5.1778    2.6155    0.9637 C   0  0  1  0  0  0  0  0  0  0  0  0
   -3.6505    2.3354    1.1321 C   0  0  0  0  0  0  0  0  0  0  0  0
   -5.5994    1.6195    0.1252 O   0  0  0  0  0  0  0  0  0  0  0  0
   -7.0809    1.8297   -0.6002 P   0  0  1  0  0  5  0  0  0  0  0  0
   -7.1654    0.8893   -1.9954 O   0  0  0  0  0  0  0  0  0  0  0  0
   -8.3676    1.4018    0.4216 O   0  0  0  0  0  0  0  0  0  0  0  0
   -7.2069    3.2917   -1.0605 O   0  0  0  0  0  0  0  0  0  0  0  0
   -7.1756    3.0630    2.4387 C   0  0  0  0  0  0  0  0  0  0  0  0
   -7.6452    3.9637    1.7039 O   0  0  0  0  0  0  0  0  0  0  0  0
   -8.0501    2.4776    3.3748 N   0  0  0  0  0  0  0  0  0  0  0  0
   -9.3881    2.9001    3.7230 C   0  0  2  0  0  0  0  0  0  0  0  0
   -9.7380    2.2603    5.0408 C   0  0  0  0  0  0  0  0  0  0  0  0
   -9.0628    1.2382    5.4166 O   0  0  0  0  0  0  0  0  0  0  0  0
  -10.2668    2.2826    2.6171 C   0  0  0  0  0  0  0  0  0  0  0  0
  -11.7307    2.5355    2.8635 C   0  0  0  0  0  0  0  0  0  0  0  0
  -12.6109    2.3135    1.7218 C   0  0  0  0  0  0  0  0  0  0  0  0
  -13.7910    2.6502    1.6616 O   0  0  0  0  0  0  0  0  0  0  0  0
  -12.0875    1.6525    0.5683 O   0  0  0  0  0  0  0  0  0  0  0  0
  -10.7650    2.7101    5.8913 N   0  0  0  0  0  0  0  0  0  0  0  0
  -10.9801    2.6752    7.2964 C   0  0  2  0  0  0  0  0  0  0  0  0
  -12.0703    1.7534    7.7570 C   0  0  0  0  0  0  0  0  0  0  0  0
  -12.9422    2.0884    8.5828 O   0  0  0  0  0  0  0  0  0  0  0  0
  -11.3520    4.1232    7.5889 C   0  0  0  0  0  0  0  0  0  0  0  0
  -11.9002    4.6804    6.2754 C   0  0  0  0  0  0  0  0  0  0  0  0
  -11.9490    3.4425    5.3871 C   0  0  0  0  0  0  0  0  0  0  0  0
  -12.1158    0.4439    7.2307 N   0  0  0  0  0  0  0  0  0  0  0  0
  -13.2658   -0.3922    7.0644 C   0  0  2  0  0  0  0  0  0  0  0  0
  -13.2662   -1.4190    8.1081 C   0  0  0  0  0  0  0  0  0  0  0  0
  -12.5299   -1.2698    9.2680 O   0  0  0  0  0  0  0  0  0  0  0  0
  -13.0120   -1.0937    5.7326 C   0  0  0  0  0  0  0  0  0  0  0  0
  -11.5172   -1.0978    5.5632 C   0  0  0  0  0  0  0  0  0  0  0  0
  -10.9731   -0.2945    6.7383 C   0  0  0  0  0  0  0  0  0  0  0  0
  -13.9386   -2.5014    8.0142 O   0  0  0  0  0  0  0  0  0  0  0  0
  2  1  1  1
  2  3  1  0
  2  5  1  0
  3  4  2  0
  3  9  1  0
  5  6  1  0
  6  7  1  6
  6  8  1  0
  9 10  1  0
 10 11  1  0
 10 13  1  1
 11 12  2  0
 11 15  1  0
 13 14  1  0
 16 15  1  1
 16 17  1  0
 16 19  1  0
 17 18  2  0
 17 22  1  0
 19 20  1  0
 19 21  1  6
 22 23  1  0
 23 24  1  0
 23 26  1  6
 24 25  2  0
 24 31  1  0
 26 27  1  0
 27 28  1  0
 28 29  2  0
 28 30  1  0
 31 32  1  0
 32 33  1  0
 32 35  1  1
 33 34  2  0
 33 39  1  0
 35 36  1  0
 36 37  1  1
 36 38  1  0
 39 40  1  0
 40 41  1  0
 40 43  1  1
 41 42  2  0
 41 45  1  0
 43 44  1  0
 46 45  1  6
 46 47  1  0
 46 54  1  0
 47 48  1  1
 47 49  1  0
 49 50  1  0
 50 51  1  6
 50 52  1  0
 50 53  2  0
 54 55  2  0
 54 56  1  0
 56 57  1  0
 57 58  1  0
 57 60  1  6
 58 59  2  0
 58 65  1  0
 60 61  1  0
 61 62  1  0
 62 63  2  0
 62 64  1  0
 65 66  1  0
 65 71  1  0
 66 67  1  6
 66 69  1  0
 67 68  2  0
 67 72  1  0
 69 70  1  0
 70 71  1  0
 72 73  1  0
 72 78  1  0
 73 74  1  1
 73 76  1  0
 74 75  1  0
 74 79  2  0
 76 77  1  0
 77 78  1  0
M  CHG  1   1   1
M  END
$$$$
