
     RDKit          3D

 22 23  0  0  0  0  0  0  0  0999 V2000
    3.3033   -0.5832   19.3040 C   0  0  0  0  0  0  0  0  0  0  0  0
    1.4983   -6.9862   26.5615 C   0  0  0  0  0  0  0  0  0  0  0  0
    0.4450   -6.8448   27.4298 C   0  0  0  0  0  0  0  0  0  0  0  0
   -0.0230   -5.5866   27.8241 C   0  0  0  0  0  0  0  0  0  0  0  0
    0.5920   -4.4610   27.3268 C   0  0  0  0  0  0  0  0  0  0  0  0
    1.6722   -4.5869   26.4369 C   0  0  0  0  0  0  0  0  0  0  0  0
    2.1020   -5.8511   26.0742 C   0  0  0  0  0  0  0  0  0  0  0  0
    2.3164   -3.4507   25.9123 N   0  0  0  0  0  0  0  0  0  0  0  0
    2.3470   -2.2943   26.8305 C   0  0  0  0  0  0  0  0  0  0  0  0
    0.9378   -2.0031   27.3246 C   0  0  1  0  0  0  0  0  0  0  0  0
    0.2190   -3.1656   27.6474 O   0  0  0  0  0  0  0  0  0  0  0  0
    1.0527   -1.1713   28.5383 C   0  0  0  0  0  0  0  0  0  0  0  0
    2.1200   -0.5402   28.7002 O   0  0  0  0  0  0  0  0  0  0  0  0
    0.0216   -1.0885   29.4667 N   0  0  0  0  0  0  0  0  0  0  0  0
    2.8344   -3.3874   24.6343 C   0  0  0  0  0  0  0  0  0  0  0  0
    2.5990   -4.4961   23.9490 O   0  0  0  0  0  0  0  0  0  0  0  0
    3.5713   -2.4051   23.8750 C   0  0  0  0  0  0  0  0  0  0  0  0
    2.7981   -2.3218   22.2109 S   0  0  0  0  0  0  0  0  0  0  0  0
    2.6459   -0.6069   21.6600 C   0  0  0  0  0  0  0  0  0  0  0  0
    2.1491   -0.6066   20.2166 C   0  0  0  0  0  0  0  0  0  0  0  0
    3.1283   -0.6800   17.9312 O   0  0  0  0  0  0  0  0  0  0  0  0
    4.5118   -0.4743   19.7090 O   0  0  0  0  0  0  0  0  0  0  0  0
 20  1  1  0
  1 21  1  0
  1 22  2  0
  2  3  2  0
  7  2  1  0
  4  3  1  0
  5  4  2  0
  6  5  1  0
  5 11  1  0
  6  7  2  0
  8  6  1  0
  8  9  1  0
 15  8  1  0
  9 10  1  0
 10 11  1  0
 10 12  1  1
 12 13  2  0
 12 14  1  0
 15 16  2  0
 17 15  1  0
 18 17  1  0
 19 18  1  0
 19 20  1  0
M  END
$$$$
