
     RDKit          3D

 22 23  0  0  0  0  0  0  0  0999 V2000
    5.3368    5.0441   29.6701 C   0  0  0  0  0  0  0  0  0  0  0  0
   -0.4453   -2.5612   28.5423 C   0  0  0  0  0  0  0  0  0  0  0  0
   -0.1507   -3.8490   28.1707 C   0  0  0  0  0  0  0  0  0  0  0  0
    0.7859   -4.1330   27.1709 C   0  0  0  0  0  0  0  0  0  0  0  0
    1.4277   -3.0905   26.5435 C   0  0  0  0  0  0  0  0  0  0  0  0
    1.1384   -1.7654   26.9110 C   0  0  0  0  0  0  0  0  0  0  0  0
    0.2048   -1.5309   27.9050 C   0  0  0  0  0  0  0  0  0  0  0  0
    1.7834   -0.6817   26.2860 N   0  0  0  0  0  0  0  0  0  0  0  0
    2.1234   -0.9158   24.8679 C   0  0  0  0  0  0  0  0  0  0  0  0
    2.8962   -2.2202   24.7416 C   0  0  1  0  0  0  0  0  0  0  0  0
    2.3696   -3.2488   25.5396 O   0  0  0  0  0  0  0  0  0  0  0  0
    2.8312   -2.6432   23.3292 C   0  0  0  0  0  0  0  0  0  0  0  0
    2.7579   -1.7423   22.4651 O   0  0  0  0  0  0  0  0  0  0  0  0
    2.8501   -3.9851   22.9675 N   0  0  0  0  0  0  0  0  0  0  0  0
    2.1231    0.4859   26.9395 C   0  0  0  0  0  0  0  0  0  0  0  0
    2.3311    1.4840   26.0940 O   0  0  0  0  0  0  0  0  0  0  0  0
    2.3079    0.8717   28.3184 C   0  0  0  0  0  0  0  0  0  0  0  0
    2.6335    2.6795   28.3314 S   0  0  0  0  0  0  0  0  0  0  0  0
    4.3701    3.0152   28.7045 C   0  0  0  0  0  0  0  0  0  0  0  0
    4.6279    4.5056   28.4983 C   0  0  0  0  0  0  0  0  0  0  0  0
    6.4135    5.9056   29.5177 O   0  0  0  0  0  0  0  0  0  0  0  0
    5.0129    4.7590   30.8743 O   0  0  0  0  0  0  0  0  0  0  0  0
 20  1  1  0
  1 21  1  0
  1 22  2  0
  2  3  2  0
  7  2  1  0
  4  3  1  0
  5  4  2  0
  6  5  1  0
  5 11  1  0
  6  7  2  0
  8  6  1  0
  8  9  1  0
 15  8  1  0
  9 10  1  0
 10 11  1  0
 10 12  1  6
 12 13  2  0
 12 14  1  0
 15 16  2  0
 17 15  1  0
 18 17  1  0
 19 18  1  0
 19 20  1  0
M  END
$$$$
