
     RDKit          3D

 22 23  0  0  0  0  0  0  0  0999 V2000
   -3.8920    0.5417   49.6968 C   0  0  0  0  0  0  0  0  0  0  0  0
   -5.3158   -7.7039   52.7091 C   0  0  0  0  0  0  0  0  0  0  0  0
   -5.2631   -9.0618   52.5174 C   0  0  0  0  0  0  0  0  0  0  0  0
   -5.6690   -9.6540   51.3166 C   0  0  0  0  0  0  0  0  0  0  0  0
   -6.1344   -8.8509   50.3013 C   0  0  0  0  0  0  0  0  0  0  0  0
   -6.1955   -7.4585   50.4802 C   0  0  0  0  0  0  0  0  0  0  0  0
   -5.7839   -6.9156   51.6845 C   0  0  0  0  0  0  0  0  0  0  0  0
   -6.6654   -6.6152   49.4559 N   0  0  0  0  0  0  0  0  0  0  0  0
   -7.7115   -7.2196   48.6064 C   0  0  0  0  0  0  0  0  0  0  0  0
   -7.2290   -8.5675   48.0917 C   0  0  1  0  0  0  0  0  0  0  0  0
   -6.5658   -9.3233   49.0722 O   0  0  0  0  0  0  0  0  0  0  0  0
   -8.4132   -9.3232   47.6394 C   0  0  0  0  0  0  0  0  0  0  0  0
   -9.5257   -8.9608   48.0807 O   0  0  0  0  0  0  0  0  0  0  0  0
   -8.3038  -10.3941   46.7600 N   0  0  0  0  0  0  0  0  0  0  0  0
   -6.1671   -5.3498   49.2186 C   0  0  0  0  0  0  0  0  0  0  0  0
   -6.7093   -4.7977   48.1436 O   0  0  0  0  0  0  0  0  0  0  0  0
   -5.1973   -4.4937   49.8597 C   0  0  0  0  0  0  0  0  0  0  0  0
   -5.6217   -2.7657   49.4037 S   0  0  0  0  0  0  0  0  0  0  0  0
   -4.7854   -1.5913   50.4942 C   0  0  0  0  0  0  0  0  0  0  0  0
   -3.6682   -0.9128   49.7055 C   0  0  0  0  0  0  0  0  0  0  0  0
   -3.1842    1.3663   48.8344 O   0  0  0  0  0  0  0  0  0  0  0  0
   -4.7331    1.1236   50.4650 O   0  0  0  0  0  0  0  0  0  0  0  0
 20  1  1  0
  1 21  1  0
  1 22  2  0
  2  3  2  0
  7  2  1  0
  4  3  1  0
  5  4  2  0
  6  5  1  0
  5 11  1  0
  6  7  2  0
  8  6  1  0
  8  9  1  0
 15  8  1  0
  9 10  1  0
 10 11  1  0
 10 12  1  1
 12 13  2  0
 12 14  1  0
 15 16  2  0
 17 15  1  0
 18 17  1  0
 19 18  1  0
 19 20  1  0
M  END
$$$$
