
     RDKit          3D

 22 23  0  0  0  0  0  0  0  0999 V2000
    4.8654    4.6323   30.1168 C   0  0  0  0  0  0  0  0  0  0  0  0
   -0.0765   -4.0138   28.0944 C   0  0  0  0  0  0  0  0  0  0  0  0
    0.6466   -5.1348   27.7721 C   0  0  0  0  0  0  0  0  0  0  0  0
    1.8111   -5.0653   26.9997 C   0  0  0  0  0  0  0  0  0  0  0  0
    2.2410   -3.8380   26.5512 C   0  0  0  0  0  0  0  0  0  0  0  0
    1.5130   -2.6795   26.8714 C   0  0  0  0  0  0  0  0  0  0  0  0
    0.3667   -2.7951   27.6378 C   0  0  0  0  0  0  0  0  0  0  0  0
    1.9335   -1.4121   26.4268 N   0  0  0  0  0  0  0  0  0  0  0  0
    2.6125   -1.4253   25.1152 C   0  0  0  0  0  0  0  0  0  0  0  0
    3.7367   -2.4501   25.1378 C   0  0  1  0  0  0  0  0  0  0  0  0
    3.3751   -3.6464   25.7784 O   0  0  0  0  0  0  0  0  0  0  0  0
    4.0901   -2.7567   23.7381 C   0  0  0  0  0  0  0  0  0  0  0  0
    3.5887   -2.0332   22.8500 O   0  0  0  0  0  0  0  0  0  0  0  0
    4.9439   -3.8044   23.4135 N   0  0  0  0  0  0  0  0  0  0  0  0
    1.7797   -0.2540   27.1623 C   0  0  0  0  0  0  0  0  0  0  0  0
    1.1079   -0.4654   28.2840 O   0  0  0  0  0  0  0  0  0  0  0  0
    2.1727    1.1252   26.9958 C   0  0  0  0  0  0  0  0  0  0  0  0
    2.4384    1.8148   28.6775 S   0  0  0  0  0  0  0  0  0  0  0  0
    3.4904    3.2833   28.6091 C   0  0  0  0  0  0  0  0  0  0  0  0
    3.6252    3.8458   30.0218 C   0  0  0  0  0  0  0  0  0  0  0  0
    4.8854    5.9756   29.7703 O   0  0  0  0  0  0  0  0  0  0  0  0
    5.9764    4.1394   30.5154 O   0  0  0  0  0  0  0  0  0  0  0  0
 20  1  1  0
  1 21  1  0
  1 22  2  0
  2  3  2  0
  7  2  1  0
  4  3  1  0
  5  4  2  0
  6  5  1  0
  5 11  1  0
  6  7  2  0
  8  6  1  0
  8  9  1  0
 15  8  1  0
  9 10  1  0
 10 11  1  0
 10 12  1  6
 12 13  2  0
 12 14  1  0
 15 16  2  0
 17 15  1  0
 18 17  1  0
 19 18  1  0
 19 20  1  0
M  END
$$$$
