
     RDKit          3D

 22 23  0  0  0  0  0  0  0  0999 V2000
   -1.6306   -2.5238   54.4671 C   0  0  0  0  0  0  0  0  0  0  0  0
   -7.4942   -9.3587   49.1236 C   0  0  0  0  0  0  0  0  0  0  0  0
   -7.5574   -8.8618   47.8459 C   0  0  0  0  0  0  0  0  0  0  0  0
   -7.0912   -7.5816   47.5277 C   0  0  0  0  0  0  0  0  0  0  0  0
   -6.5554   -6.8005   48.5254 C   0  0  0  0  0  0  0  0  0  0  0  0
   -6.4830   -7.2930   49.8395 C   0  0  0  0  0  0  0  0  0  0  0  0
   -6.9564   -8.5650   50.1089 C   0  0  0  0  0  0  0  0  0  0  0  0
   -5.9370   -6.5144   50.8771 N   0  0  0  0  0  0  0  0  0  0  0  0
   -6.1606   -5.0622   50.7262 C   0  0  0  0  0  0  0  0  0  0  0  0
   -5.6988   -4.6201   49.3457 C   0  0  1  0  0  0  0  0  0  0  0  0
   -6.0660   -5.5189   48.3309 O   0  0  0  0  0  0  0  0  0  0  0  0
   -6.3238   -3.3134   49.0626 C   0  0  0  0  0  0  0  0  0  0  0  0
   -6.9436   -2.7613   49.9979 O   0  0  0  0  0  0  0  0  0  0  0  0
   -6.2315   -2.7159   47.8110 N   0  0  0  0  0  0  0  0  0  0  0  0
   -5.2085   -7.0401   51.9253 C   0  0  0  0  0  0  0  0  0  0  0  0
   -4.8263   -8.2857   51.6871 O   0  0  0  0  0  0  0  0  0  0  0  0
   -4.7713   -6.5563   53.2135 C   0  0  0  0  0  0  0  0  0  0  0  0
   -3.0219   -6.0293   53.0239 S   0  0  0  0  0  0  0  0  0  0  0  0
   -2.8646   -4.2412   53.2377 C   0  0  0  0  0  0  0  0  0  0  0  0
   -1.7304   -3.9716   54.2233 C   0  0  0  0  0  0  0  0  0  0  0  0
   -1.5851   -2.0203   55.7591 O   0  0  0  0  0  0  0  0  0  0  0  0
   -1.5803   -1.6588   53.5261 O   0  0  0  0  0  0  0  0  0  0  0  0
 20  1  1  0
  1 21  1  0
  1 22  2  0
  2  3  2  0
  7  2  1  0
  4  3  1  0
  5  4  2  0
  6  5  1  0
  5 11  1  0
  6  7  2  0
  8  6  1  0
  8  9  1  0
 15  8  1  0
  9 10  1  0
 10 11  1  0
 10 12  1  6
 12 13  2  0
 12 14  1  0
 15 16  2  0
 17 15  1  0
 18 17  1  0
 19 18  1  0
 19 20  1  0
M  END
$$$$
