
     RDKit          3D

 22 23  0  0  0  0  0  0  0  0999 V2000
    3.2730    3.7629   30.1418 C   0  0  0  0  0  0  0  0  0  0  0  0
    0.1129   -5.7144   28.0433 C   0  0  0  0  0  0  0  0  0  0  0  0
    1.0276   -6.6780   27.6995 C   0  0  0  0  0  0  0  0  0  0  0  0
    2.1583   -6.3818   26.9305 C   0  0  0  0  0  0  0  0  0  0  0  0
    2.3562   -5.0878   26.5077 C   0  0  0  0  0  0  0  0  0  0  0  0
    1.4299   -4.0883   26.8501 C   0  0  0  0  0  0  0  0  0  0  0  0
    0.3255   -4.4263   27.6122 C   0  0  0  0  0  0  0  0  0  0  0  0
    1.6113   -2.7567   26.4319 N   0  0  0  0  0  0  0  0  0  0  0  0
    2.2784   -2.6193   25.1214 C   0  0  0  0  0  0  0  0  0  0  0  0
    3.5707   -3.4222   25.1250 C   0  0  1  0  0  0  0  0  0  0  0  0
    3.4348   -4.6771   25.7407 O   0  0  0  0  0  0  0  0  0  0  0  0
    3.9712   -3.6309   23.7200 C   0  0  0  0  0  0  0  0  0  0  0  0
    3.2396   -3.1326   22.8367 O   0  0  0  0  0  0  0  0  0  0  0  0
    5.1124   -4.3503   23.3853 N   0  0  0  0  0  0  0  0  0  0  0  0
    1.2505   -1.6612   27.1905 C   0  0  0  0  0  0  0  0  0  0  0  0
    0.5202   -2.0049   28.2407 O   0  0  0  0  0  0  0  0  0  0  0  0
    1.4768   -0.2377   27.1070 C   0  0  0  0  0  0  0  0  0  0  0  0
    2.2991    0.2681   28.6697 S   0  0  0  0  0  0  0  0  0  0  0  0
    2.9558    1.9468   28.5341 C   0  0  0  0  0  0  0  0  0  0  0  0
    3.5522    2.3414   29.8828 C   0  0  0  0  0  0  0  0  0  0  0  0
    2.7845    4.5874   29.1386 O   0  0  0  0  0  0  0  0  0  0  0  0
    3.4580    4.3148   31.2808 O   0  0  0  0  0  0  0  0  0  0  0  0
 20  1  1  0
  1 21  1  0
  1 22  2  0
  2  3  2  0
  7  2  1  0
  4  3  1  0
  5  4  2  0
  6  5  1  0
  5 11  1  0
  6  7  2  0
  8  6  1  0
  8  9  1  0
 15  8  1  0
  9 10  1  0
 10 11  1  0
 10 12  1  6
 12 13  2  0
 12 14  1  0
 15 16  2  0
 17 15  1  0
 18 17  1  0
 19 18  1  0
 19 20  1  0
M  END
$$$$
