
     RDKit          3D

 22 23  0  0  0  0  0  0  0  0999 V2000
   -3.6024   -0.6505   50.3847 C   0  0  0  0  0  0  0  0  0  0  0  0
   -8.8480   -8.9760   49.0974 C   0  0  0  0  0  0  0  0  0  0  0  0
   -8.9617   -9.8041   50.1859 C   0  0  0  0  0  0  0  0  0  0  0  0
   -7.9112   -9.9794   51.0931 C   0  0  0  0  0  0  0  0  0  0  0  0
   -6.7317   -9.3024   50.8858 C   0  0  0  0  0  0  0  0  0  0  0  0
   -6.5974   -8.4504   49.7765 C   0  0  0  0  0  0  0  0  0  0  0  0
   -7.6623   -8.3071   48.9047 C   0  0  0  0  0  0  0  0  0  0  0  0
   -5.4020   -7.7448   49.5439 N   0  0  0  0  0  0  0  0  0  0  0  0
   -4.1842   -8.4556   49.9835 C   0  0  0  0  0  0  0  0  0  0  0  0
   -4.3464   -8.8882   51.4331 C   0  0  1  0  0  0  0  0  0  0  0  0
   -5.6242   -9.3991   51.7130 O   0  0  0  0  0  0  0  0  0  0  0  0
   -3.3511   -9.9452   51.6981 C   0  0  0  0  0  0  0  0  0  0  0  0
   -2.7380  -10.4132   50.7138 O   0  0  0  0  0  0  0  0  0  0  0  0
   -3.1007  -10.4060   52.9853 N   0  0  0  0  0  0  0  0  0  0  0  0
   -5.3561   -6.4764   49.0011 C   0  0  0  0  0  0  0  0  0  0  0  0
   -6.5373   -6.0913   48.5419 O   0  0  0  0  0  0  0  0  0  0  0  0
   -4.3295   -5.4787   48.8136 C   0  0  0  0  0  0  0  0  0  0  0  0
   -4.5844   -4.1965   50.1041 S   0  0  0  0  0  0  0  0  0  0  0  0
   -4.7387   -2.5575   49.3574 C   0  0  0  0  0  0  0  0  0  0  0  0
   -4.7858   -1.5205   50.4766 C   0  0  0  0  0  0  0  0  0  0  0  0
   -3.6795    0.5956   49.7797 O   0  0  0  0  0  0  0  0  0  0  0  0
   -2.4557   -0.9799   50.8460 O   0  0  0  0  0  0  0  0  0  0  0  0
 20  1  1  0
  1 21  1  0
  1 22  2  0
  2  3  2  0
  7  2  1  0
  4  3  1  0
  5  4  2  0
  6  5  1  0
  5 11  1  0
  6  7  2  0
  8  6  1  0
  8  9  1  0
 15  8  1  0
  9 10  1  0
 10 11  1  0
 10 12  1  6
 12 13  2  0
 12 14  1  0
 15 16  2  0
 17 15  1  0
 18 17  1  0
 19 18  1  0
 19 20  1  0
M  END
$$$$
