
     RDKit          3D

 22 23  0  0  0  0  0  0  0  0999 V2000
  -15.9266   12.3832   35.6107 C   0  0  0  0  0  0  0  0  0  0  0  0
  -18.1381    4.2666   33.5926 C   0  0  0  0  0  0  0  0  0  0  0  0
  -18.9286    3.3250   32.9827 C   0  0  0  0  0  0  0  0  0  0  0  0
  -20.2997    3.5252   32.7895 C   0  0  0  0  0  0  0  0  0  0  0  0
  -20.8695    4.6993   33.2246 C   0  0  0  0  0  0  0  0  0  0  0  0
  -20.0753    5.6745   33.8513 C   0  0  0  0  0  0  0  0  0  0  0  0
  -18.7234    5.4342   34.0219 C   0  0  0  0  0  0  0  0  0  0  0  0
  -20.6340    6.8849   34.3029 N   0  0  0  0  0  0  0  0  0  0  0  0
  -22.0311    6.7703   34.7682 C   0  0  0  0  0  0  0  0  0  0  0  0
  -22.8685    6.0941   33.6930 C   0  0  1  0  0  0  0  0  0  0  0  0
  -22.2140    5.0070   33.0912 O   0  0  0  0  0  0  0  0  0  0  0  0
  -24.1038    5.6011   34.3327 C   0  0  0  0  0  0  0  0  0  0  0  0
  -24.3069    5.9383   35.5196 O   0  0  0  0  0  0  0  0  0  0  0  0
  -25.0078    4.7954   33.6504 N   0  0  0  0  0  0  0  0  0  0  0  0
  -19.9670    8.0932   34.2725 C   0  0  0  0  0  0  0  0  0  0  0  0
  -20.6021    9.0269   34.9647 O   0  0  0  0  0  0  0  0  0  0  0  0
  -18.7500    8.5767   33.6644 C   0  0  0  0  0  0  0  0  0  0  0  0
  -18.0955    9.9031   34.7536 S   0  0  0  0  0  0  0  0  0  0  0  0
  -16.5409   10.5573   34.1033 C   0  0  0  0  0  0  0  0  0  0  0  0
  -15.6630   10.9735   35.2808 C   0  0  0  0  0  0  0  0  0  0  0  0
  -15.6556   12.8814   36.8769 O   0  0  0  0  0  0  0  0  0  0  0  0
  -16.4101   13.2184   34.7711 O   0  0  0  0  0  0  0  0  0  0  0  0
 20  1  1  0
  1 21  1  0
  1 22  2  0
  2  3  2  0
  7  2  1  0
  4  3  1  0
  5  4  2  0
  6  5  1  0
  5 11  1  0
  6  7  2  0
  8  6  1  0
  8  9  1  0
 15  8  1  0
  9 10  1  0
 10 11  1  0
 10 12  1  1
 12 13  2  0
 12 14  1  0
 15 16  2  0
 17 15  1  0
 18 17  1  0
 19 18  1  0
 19 20  1  0
M  END
$$$$
