
     RDKit          3D

 22 23  0  0  0  0  0  0  0  0999 V2000
  -24.7972    7.9831   32.8164 C   0  0  0  0  0  0  0  0  0  0  0  0
  -24.7368   -0.9461   34.1377 C   0  0  0  0  0  0  0  0  0  0  0  0
  -24.2809   -2.1985   33.8103 C   0  0  0  0  0  0  0  0  0  0  0  0
  -23.2760   -2.3923   32.8562 C   0  0  0  0  0  0  0  0  0  0  0  0
  -22.7318   -1.2953   32.2294 C   0  0  0  0  0  0  0  0  0  0  0  0
  -23.1866   -0.0055   32.5520 C   0  0  0  0  0  0  0  0  0  0  0  0
  -24.1825    0.1394   33.5015 C   0  0  0  0  0  0  0  0  0  0  0  0
  -22.6440    1.1328   31.9267 N   0  0  0  0  0  0  0  0  0  0  0  0
  -22.2191    0.9112   30.5296 C   0  0  0  0  0  0  0  0  0  0  0  0
  -21.2971   -0.2973   30.4668 C   0  0  1  0  0  0  0  0  0  0  0  0
  -21.7360   -1.3638   31.2683 O   0  0  0  0  0  0  0  0  0  0  0  0
  -21.2528   -0.7533   29.0639 C   0  0  0  0  0  0  0  0  0  0  0  0
  -21.7094    0.0223   28.1958 O   0  0  0  0  0  0  0  0  0  0  0  0
  -20.7270   -1.9918   28.7151 N   0  0  0  0  0  0  0  0  0  0  0  0
  -22.4687    2.3447   32.5640 C   0  0  0  0  0  0  0  0  0  0  0  0
  -22.7425    2.2681   33.8576 O   0  0  0  0  0  0  0  0  0  0  0  0
  -22.0636    3.6686   32.1544 C   0  0  0  0  0  0  0  0  0  0  0  0
  -23.3289    4.8384   32.7906 S   0  0  0  0  0  0  0  0  0  0  0  0
  -22.8510    6.5478   32.4482 C   0  0  0  0  0  0  0  0  0  0  0  0
  -23.5720    7.4576   33.4395 C   0  0  0  0  0  0  0  0  0  0  0  0
  -25.8890    8.3499   33.5898 O   0  0  0  0  0  0  0  0  0  0  0  0
  -24.9298    8.1317   31.5528 O   0  0  0  0  0  0  0  0  0  0  0  0
 20  1  1  0
  1 21  1  0
  1 22  2  0
  2  3  2  0
  7  2  1  0
  4  3  1  0
  5  4  2  0
  6  5  1  0
  5 11  1  0
  6  7  2  0
  8  6  1  0
  8  9  1  0
 15  8  1  0
  9 10  1  0
 10 11  1  0
 10 12  1  6
 12 13  2  0
 12 14  1  0
 15 16  2  0
 17 15  1  0
 18 17  1  0
 19 18  1  0
 19 20  1  0
M  END
$$$$
