
     RDKit          3D

 22 23  0  0  0  0  0  0  0  0999 V2000
    3.9927    4.7369   29.9636 C   0  0  0  0  0  0  0  0  0  0  0  0
   -0.0812   -4.3605   27.9193 C   0  0  0  0  0  0  0  0  0  0  0  0
    0.5536   -5.5628   27.7323 C   0  0  0  0  0  0  0  0  0  0  0  0
    1.7853   -5.6529   27.0748 C   0  0  0  0  0  0  0  0  0  0  0  0
    2.3744   -4.5029   26.6027 C   0  0  0  0  0  0  0  0  0  0  0  0
    1.7386   -3.2631   26.7851 C   0  0  0  0  0  0  0  0  0  0  0  0
    0.5209   -3.2208   27.4409 C   0  0  0  0  0  0  0  0  0  0  0  0
    2.3220   -2.0722   26.3136 N   0  0  0  0  0  0  0  0  0  0  0  0
    3.1140   -2.2340   25.0775 C   0  0  0  0  0  0  0  0  0  0  0  0
    4.1240   -3.3558   25.2671 C   0  0  1  0  0  0  0  0  0  0  0  0
    3.5881   -4.4689   25.9351 O   0  0  0  0  0  0  0  0  0  0  0  0
    4.5724   -3.7845   23.9280 C   0  0  0  0  0  0  0  0  0  0  0  0
    4.3896   -2.9881   22.9815 O   0  0  0  0  0  0  0  0  0  0  0  0
    5.1735   -5.0205   23.7204 N   0  0  0  0  0  0  0  0  0  0  0  0
    2.2170   -0.8594   26.9648 C   0  0  0  0  0  0  0  0  0  0  0  0
    1.2817   -0.8802   27.9025 O   0  0  0  0  0  0  0  0  0  0  0  0
    2.8795    0.4193   26.8623 C   0  0  0  0  0  0  0  0  0  0  0  0
    2.5984    1.2987   28.4503 S   0  0  0  0  0  0  0  0  0  0  0  0
    3.6793    2.7415   28.5838 C   0  0  0  0  0  0  0  0  0  0  0  0
    3.5022    3.3495   29.9729 C   0  0  0  0  0  0  0  0  0  0  0  0
    4.8663    5.1903   30.9414 O   0  0  0  0  0  0  0  0  0  0  0  0
    3.6533    5.5918   29.0748 O   0  0  0  0  0  0  0  0  0  0  0  0
 20  1  1  0
  1 21  1  0
  1 22  2  0
  2  3  2  0
  7  2  1  0
  4  3  1  0
  5  4  2  0
  6  5  1  0
  5 11  1  0
  6  7  2  0
  8  6  1  0
  8  9  1  0
 15  8  1  0
  9 10  1  0
 10 11  1  0
 10 12  1  6
 12 13  2  0
 12 14  1  0
 15 16  2  0
 17 15  1  0
 18 17  1  0
 19 18  1  0
 19 20  1  0
M  END
$$$$
