
     RDKit          3D

 22 23  0  0  0  0  0  0  0  0999 V2000
  -16.7091   11.7831   35.3386 C   0  0  0  0  0  0  0  0  0  0  0  0
  -18.8655    2.0375   33.3056 C   0  0  0  0  0  0  0  0  0  0  0  0
  -19.8209    1.5124   32.4719 C   0  0  0  0  0  0  0  0  0  0  0  0
  -20.9937    2.2094   32.1617 C   0  0  0  0  0  0  0  0  0  0  0  0
  -21.1931    3.4554   32.7095 C   0  0  0  0  0  0  0  0  0  0  0  0
  -20.2256    4.0085   33.5655 C   0  0  0  0  0  0  0  0  0  0  0  0
  -19.0806    3.2836   33.8451 C   0  0  0  0  0  0  0  0  0  0  0  0
  -20.4051    5.2824   34.1365 N   0  0  0  0  0  0  0  0  0  0  0  0
  -21.8133    5.6256   34.4202 C   0  0  0  0  0  0  0  0  0  0  0  0
  -22.6482    5.4137   33.1662 C   0  0  1  0  0  0  0  0  0  0  0  0
  -22.3142    4.2360   32.4778 O   0  0  0  0  0  0  0  0  0  0  0  0
  -24.0624    5.3293   33.5799 C   0  0  0  0  0  0  0  0  0  0  0  0
  -24.3303    5.6252   34.7649 O   0  0  0  0  0  0  0  0  0  0  0  0
  -25.0598    4.9378   32.6945 N   0  0  0  0  0  0  0  0  0  0  0  0
  -19.3721    6.1679   34.3700 C   0  0  0  0  0  0  0  0  0  0  0  0
  -18.1896    5.5732   34.3218 O   0  0  0  0  0  0  0  0  0  0  0  0
  -19.2780    7.5798   34.6566 C   0  0  0  0  0  0  0  0  0  0  0  0
  -17.7632    8.1977   33.8214 S   0  0  0  0  0  0  0  0  0  0  0  0
  -17.6462    9.9967   33.9552 C   0  0  0  0  0  0  0  0  0  0  0  0
  -16.6765   10.3339   35.0850 C   0  0  0  0  0  0  0  0  0  0  0  0
  -17.6024   12.3270   36.2502 O   0  0  0  0  0  0  0  0  0  0  0  0
  -15.9343   12.6129   34.7493 O   0  0  0  0  0  0  0  0  0  0  0  0
 20  1  1  0
  1 21  1  0
  1 22  2  0
  2  3  2  0
  7  2  1  0
  4  3  1  0
  5  4  2  0
  6  5  1  0
  5 11  1  0
  6  7  2  0
  8  6  1  0
  8  9  1  0
 15  8  1  0
  9 10  1  0
 10 11  1  0
 10 12  1  1
 12 13  2  0
 12 14  1  0
 15 16  2  0
 17 15  1  0
 18 17  1  0
 19 18  1  0
 19 20  1  0
M  END
$$$$
