
     RDKit          3D

 22 23  0  0  0  0  0  0  0  0999 V2000
  -23.0296    9.4358   34.5797 C   0  0  0  0  0  0  0  0  0  0  0  0
  -21.0844    0.9996   29.7031 C   0  0  0  0  0  0  0  0  0  0  0  0
  -21.9403   -0.0331   29.4125 C   0  0  0  0  0  0  0  0  0  0  0  0
  -23.0284   -0.3438   30.2352 C   0  0  0  0  0  0  0  0  0  0  0  0
  -23.2440    0.4076   31.3671 C   0  0  0  0  0  0  0  0  0  0  0  0
  -22.3776    1.4686   31.6804 C   0  0  0  0  0  0  0  0  0  0  0  0
  -21.3138    1.7403   30.8384 C   0  0  0  0  0  0  0  0  0  0  0  0
  -22.5784    2.2537   32.8312 N   0  0  0  0  0  0  0  0  0  0  0  0
  -23.1636    1.5188   33.9709 C   0  0  0  0  0  0  0  0  0  0  0  0
  -24.4243    0.7994   33.5153 C   0  0  1  0  0  0  0  0  0  0  0  0
  -24.2843    0.1921   32.2567 O   0  0  0  0  0  0  0  0  0  0  0  0
  -24.7251   -0.2486   34.5100 C   0  0  0  0  0  0  0  0  0  0  0  0
  -24.1427   -0.1732   35.6140 O   0  0  0  0  0  0  0  0  0  0  0  0
  -25.6173   -1.2790   34.2377 N   0  0  0  0  0  0  0  0  0  0  0  0
  -22.3064    3.6058   32.8913 C   0  0  0  0  0  0  0  0  0  0  0  0
  -21.4401    3.9785   31.9612 O   0  0  0  0  0  0  0  0  0  0  0  0
  -22.7380    4.7016   33.7264 C   0  0  0  0  0  0  0  0  0  0  0  0
  -23.4844    5.9610   32.6168 S   0  0  0  0  0  0  0  0  0  0  0  0
  -23.9759    7.4280   33.5517 C   0  0  0  0  0  0  0  0  0  0  0  0
  -22.7215    8.0639   34.1453 C   0  0  0  0  0  0  0  0  0  0  0  0
  -23.8956    9.6705   35.6379 O   0  0  0  0  0  0  0  0  0  0  0  0
  -22.5303   10.4736   34.0230 O   0  0  0  0  0  0  0  0  0  0  0  0
 20  1  1  0
  1 21  1  0
  1 22  2  0
  2  3  2  0
  7  2  1  0
  4  3  1  0
  5  4  2  0
  6  5  1  0
  5 11  1  0
  6  7  2  0
  8  6  1  0
  8  9  1  0
 15  8  1  0
  9 10  1  0
 10 11  1  0
 10 12  1  1
 12 13  2  0
 12 14  1  0
 15 16  2  0
 17 15  1  0
 18 17  1  0
 19 18  1  0
 19 20  1  0
M  END
$$$$
