
     RDKit          3D

 22 23  0  0  0  0  0  0  0  0999 V2000
   -2.2281   -1.7895   54.1863 C   0  0  0  0  0  0  0  0  0  0  0  0
   -6.0134   -5.2135   47.0145 C   0  0  0  0  0  0  0  0  0  0  0  0
   -6.9904   -5.8758   46.3144 C   0  0  0  0  0  0  0  0  0  0  0  0
   -7.6091   -7.0252   46.8180 C   0  0  0  0  0  0  0  0  0  0  0  0
   -7.2251   -7.5035   48.0493 C   0  0  0  0  0  0  0  0  0  0  0  0
   -6.2262   -6.8382   48.7801 C   0  0  0  0  0  0  0  0  0  0  0  0
   -5.6411   -5.7050   48.2434 C   0  0  0  0  0  0  0  0  0  0  0  0
   -5.8177   -7.3062   50.0431 N   0  0  0  0  0  0  0  0  0  0  0  0
   -5.8815   -8.7740   50.1945 C   0  0  0  0  0  0  0  0  0  0  0  0
   -7.2666   -9.2636   49.7990 C   0  0  1  0  0  0  0  0  0  0  0  0
   -7.7631   -8.6319   48.6471 O   0  0  0  0  0  0  0  0  0  0  0  0
   -7.1696  -10.7122   49.5336 C   0  0  0  0  0  0  0  0  0  0  0  0
   -6.2979  -11.3516   50.1620 O   0  0  0  0  0  0  0  0  0  0  0  0
   -8.0089  -11.3456   48.6245 N   0  0  0  0  0  0  0  0  0  0  0  0
   -5.4370   -6.4771   51.0792 C   0  0  0  0  0  0  0  0  0  0  0  0
   -5.3218   -7.1349   52.2230 O   0  0  0  0  0  0  0  0  0  0  0  0
   -5.1407   -5.0701   51.2095 C   0  0  0  0  0  0  0  0  0  0  0  0
   -3.5076   -4.9397   52.0401 S   0  0  0  0  0  0  0  0  0  0  0  0
   -3.1097   -3.2143   52.4042 C   0  0  0  0  0  0  0  0  0  0  0  0
   -2.2763   -3.1713   53.6824 C   0  0  0  0  0  0  0  0  0  0  0  0
   -1.8501   -1.5206   55.4939 O   0  0  0  0  0  0  0  0  0  0  0  0
   -2.5242   -0.7733   53.4680 O   0  0  0  0  0  0  0  0  0  0  0  0
 20  1  1  0
  1 21  1  0
  1 22  2  0
  2  3  2  0
  7  2  1  0
  4  3  1  0
  5  4  2  0
  6  5  1  0
  5 11  1  0
  6  7  2  0
  8  6  1  0
  8  9  1  0
 15  8  1  0
  9 10  1  0
 10 11  1  0
 10 12  1  6
 12 13  2  0
 12 14  1  0
 15 16  2  0
 17 15  1  0
 18 17  1  0
 19 18  1  0
 19 20  1  0
M  END
$$$$
