
     RDKit          3D

 22 23  0  0  0  0  0  0  0  0999 V2000
   -8.7242  -10.8173   46.9413 C   0  0  0  0  0  0  0  0  0  0  0  0
   -6.4096   -2.9802   48.4344 C   0  0  0  0  0  0  0  0  0  0  0  0
   -5.5619   -1.9646   48.7996 C   0  0  0  0  0  0  0  0  0  0  0  0
   -4.6144   -2.1236   49.8166 C   0  0  0  0  0  0  0  0  0  0  0  0
   -4.5324   -3.3325   50.4680 C   0  0  0  0  0  0  0  0  0  0  0  0
   -5.3925   -4.3835   50.1074 C   0  0  0  0  0  0  0  0  0  0  0  0
   -6.3148   -4.1819   49.0958 C   0  0  0  0  0  0  0  0  0  0  0  0
   -5.3267   -5.6305   50.7568 N   0  0  0  0  0  0  0  0  0  0  0  0
   -4.9381   -5.5522   52.1796 C   0  0  0  0  0  0  0  0  0  0  0  0
   -3.6544   -4.7460   52.3098 C   0  0  1  0  0  0  0  0  0  0  0  0
   -3.6380   -3.6054   51.4905 O   0  0  0  0  0  0  0  0  0  0  0  0
   -3.5387   -4.3140   53.7162 C   0  0  0  0  0  0  0  0  0  0  0  0
   -4.5924   -3.9784   54.3000 O   0  0  0  0  0  0  0  0  0  0  0  0
   -2.3129   -4.2791   54.3706 N   0  0  0  0  0  0  0  0  0  0  0  0
   -5.5516   -6.8357   50.1224 C   0  0  0  0  0  0  0  0  0  0  0  0
   -4.5580   -7.6899   50.3154 O   0  0  0  0  0  0  0  0  0  0  0  0
   -6.6063   -7.3795   49.2999 C   0  0  0  0  0  0  0  0  0  0  0  0
   -6.9252   -9.0877   49.8951 S   0  0  0  0  0  0  0  0  0  0  0  0
   -8.4150   -9.7659   49.1282 C   0  0  0  0  0  0  0  0  0  0  0  0
   -8.0059  -10.9237   48.2212 C   0  0  0  0  0  0  0  0  0  0  0  0
   -9.5458   -9.7319   46.6734 O   0  0  0  0  0  0  0  0  0  0  0  0
   -8.6383  -11.6972   46.0168 O   0  0  0  0  0  0  0  0  0  0  0  0
 20  1  1  0
  1 21  1  0
  1 22  2  0
  2  3  2  0
  7  2  1  0
  4  3  1  0
  5  4  2  0
  6  5  1  0
  5 11  1  0
  6  7  2  0
  8  6  1  0
  8  9  1  0
 15  8  1  0
  9 10  1  0
 10 11  1  0
 10 12  1  1
 12 13  2  0
 12 14  1  0
 15 16  2  0
 17 15  1  0
 18 17  1  0
 19 18  1  0
 19 20  1  0
M  END
$$$$
