
     RDKit          3D

 22 23  0  0  0  0  0  0  0  0999 V2000
    4.6702    4.3488   29.4285 C   0  0  0  0  0  0  0  0  0  0  0  0
    0.9831   -1.6531   21.7293 C   0  0  0  0  0  0  0  0  0  0  0  0
    0.2556   -2.8113   21.8424 C   0  0  0  0  0  0  0  0  0  0  0  0
    0.3876   -3.6612   22.9460 C   0  0  0  0  0  0  0  0  0  0  0  0
    1.2726   -3.3248   23.9440 C   0  0  0  0  0  0  0  0  0  0  0  0
    2.0259   -2.1428   23.8447 C   0  0  0  0  0  0  0  0  0  0  0  0
    1.8634   -1.3320   22.7353 C   0  0  0  0  0  0  0  0  0  0  0  0
    2.9360   -1.7754   24.8535 N   0  0  0  0  0  0  0  0  0  0  0  0
    3.5833   -2.9176   25.5301 C   0  0  0  0  0  0  0  0  0  0  0  0
    2.5172   -3.8879   26.0164 C   0  0  1  0  0  0  0  0  0  0  0  0
    1.4900   -4.0881   25.0799 O   0  0  0  0  0  0  0  0  0  0  0  0
    3.1758   -5.1835   26.2732 C   0  0  0  0  0  0  0  0  0  0  0  0
    4.3973   -5.1612   26.5398 O   0  0  0  0  0  0  0  0  0  0  0  0
    2.4737   -6.3820   26.2223 N   0  0  0  0  0  0  0  0  0  0  0  0
    3.1765   -0.4683   25.2272 C   0  0  0  0  0  0  0  0  0  0  0  0
    2.2371    0.3540   24.7850 O   0  0  0  0  0  0  0  0  0  0  0  0
    4.2066    0.2096   25.9782 C   0  0  0  0  0  0  0  0  0  0  0  0
    3.4483    1.7284   26.6799 S   0  0  0  0  0  0  0  0  0  0  0  0
    4.6483    2.6422   27.6762 C   0  0  0  0  0  0  0  0  0  0  0  0
    3.9699    3.8992   28.2148 C   0  0  0  0  0  0  0  0  0  0  0  0
    5.9673    4.8368   29.3633 O   0  0  0  0  0  0  0  0  0  0  0  0
    4.1401    4.3191   30.5923 O   0  0  0  0  0  0  0  0  0  0  0  0
 20  1  1  0
  1 21  1  0
  1 22  2  0
  2  3  2  0
  7  2  1  0
  4  3  1  0
  5  4  2  0
  6  5  1  0
  5 11  1  0
  6  7  2  0
  8  6  1  0
  8  9  1  0
 15  8  1  0
  9 10  1  0
 10 11  1  0
 10 12  1  6
 12 13  2  0
 12 14  1  0
 15 16  2  0
 17 15  1  0
 18 17  1  0
 19 18  1  0
 19 20  1  0
M  END
$$$$
