
     RDKit          3D

 22 23  0  0  0  0  0  0  0  0999 V2000
   -3.7138   -0.5062   50.6260 C   0  0  0  0  0  0  0  0  0  0  0  0
   -8.3206   -9.3324   47.4169 C   0  0  0  0  0  0  0  0  0  0  0  0
   -9.0819   -9.8881   48.4144 C   0  0  0  0  0  0  0  0  0  0  0  0
   -8.8355   -9.6228   49.7658 C   0  0  0  0  0  0  0  0  0  0  0  0
   -7.8002   -8.7817   50.1018 C   0  0  0  0  0  0  0  0  0  0  0  0
   -7.0101   -8.2039   49.0936 C   0  0  0  0  0  0  0  0  0  0  0  0
   -7.2894   -8.4944   47.7699 C   0  0  0  0  0  0  0  0  0  0  0  0
   -5.9468   -7.3383   49.4115 N   0  0  0  0  0  0  0  0  0  0  0  0
   -5.2675   -7.6557   50.6840 C   0  0  0  0  0  0  0  0  0  0  0  0
   -6.3002   -7.7615   51.7961 C   0  0  1  0  0  0  0  0  0  0  0  0
   -7.4604   -8.4485   51.4033 O   0  0  0  0  0  0  0  0  0  0  0  0
   -5.6780   -8.4951   52.9154 C   0  0  0  0  0  0  0  0  0  0  0  0
   -4.4307   -8.4617   52.9981 O   0  0  0  0  0  0  0  0  0  0  0  0
   -6.4405   -9.1959   53.8425 N   0  0  0  0  0  0  0  0  0  0  0  0
   -5.5891   -6.2512   48.6395 C   0  0  0  0  0  0  0  0  0  0  0  0
   -6.2275   -6.2363   47.4791 O   0  0  0  0  0  0  0  0  0  0  0  0
   -4.6857   -5.1359   48.7965 C   0  0  0  0  0  0  0  0  0  0  0  0
   -5.7103   -3.6688   49.2108 S   0  0  0  0  0  0  0  0  0  0  0  0
   -4.7252   -2.1553   49.1291 C   0  0  0  0  0  0  0  0  0  0  0  0
   -4.8515   -1.4253   50.4638 C   0  0  0  0  0  0  0  0  0  0  0  0
   -3.5900    0.2809   51.7618 O   0  0  0  0  0  0  0  0  0  0  0  0
   -2.7892   -0.3780   49.7515 O   0  0  0  0  0  0  0  0  0  0  0  0
 20  1  1  0
  1 21  1  0
  1 22  2  0
  2  3  2  0
  7  2  1  0
  4  3  1  0
  5  4  2  0
  6  5  1  0
  5 11  1  0
  6  7  2  0
  8  6  1  0
  8  9  1  0
 15  8  1  0
  9 10  1  0
 10 11  1  0
 10 12  1  1
 12 13  2  0
 12 14  1  0
 15 16  2  0
 17 15  1  0
 18 17  1  0
 19 18  1  0
 19 20  1  0
M  END
$$$$
