
     RDKit          3D

 22 23  0  0  0  0  0  0  0  0999 V2000
    4.5647    4.0964   29.8552 C   0  0  0  0  0  0  0  0  0  0  0  0
   -0.9583   -2.9509   28.5800 C   0  0  0  0  0  0  0  0  0  0  0  0
   -0.6689   -4.2924   28.5870 C   0  0  0  0  0  0  0  0  0  0  0  0
    0.4037   -4.8200   27.8600 C   0  0  0  0  0  0  0  0  0  0  0  0
    1.1884   -3.9685   27.1173 C   0  0  0  0  0  0  0  0  0  0  0  0
    0.9066   -2.5920   27.0983 C   0  0  0  0  0  0  0  0  0  0  0  0
   -0.1645   -2.1137   27.8322 C   0  0  0  0  0  0  0  0  0  0  0  0
    1.6960   -1.7000   26.3485 N   0  0  0  0  0  0  0  0  0  0  0  0
    2.2514   -2.2788   25.1083 C   0  0  0  0  0  0  0  0  0  0  0  0
    2.9713   -3.5787   25.4349 C   0  0  1  0  0  0  0  0  0  0  0  0
    2.2729   -4.3754   26.3568 O   0  0  0  0  0  0  0  0  0  0  0  0
    3.1176   -4.3368   24.1772 C   0  0  0  0  0  0  0  0  0  0  0  0
    2.9272   -3.7149   23.1091 O   0  0  0  0  0  0  0  0  0  0  0  0
    3.4526   -5.6857   24.1726 N   0  0  0  0  0  0  0  0  0  0  0  0
    1.9799   -0.4093   26.7476 C   0  0  0  0  0  0  0  0  0  0  0  0
    1.3116   -0.0704   27.8398 O   0  0  0  0  0  0  0  0  0  0  0  0
    2.8252    0.6528   26.2557 C   0  0  0  0  0  0  0  0  0  0  0  0
    3.9271    1.1470   27.6398 S   0  0  0  0  0  0  0  0  0  0  0  0
    4.0345    2.9474   27.7618 C   0  0  0  0  0  0  0  0  0  0  0  0
    3.5093    3.3698   29.1315 C   0  0  0  0  0  0  0  0  0  0  0  0
    5.8189    4.2796   29.2910 O   0  0  0  0  0  0  0  0  0  0  0  0
    4.3966    4.5933   31.0218 O   0  0  0  0  0  0  0  0  0  0  0  0
 20  1  1  0
  1 21  1  0
  1 22  2  0
  2  3  2  0
  7  2  1  0
  4  3  1  0
  5  4  2  0
  6  5  1  0
  5 11  1  0
  6  7  2  0
  8  6  1  0
  8  9  1  0
 15  8  1  0
  9 10  1  0
 10 11  1  0
 10 12  1  6
 12 13  2  0
 12 14  1  0
 15 16  2  0
 17 15  1  0
 18 17  1  0
 19 18  1  0
 19 20  1  0
M  END
$$$$
