
     RDKit          3D

 22 23  0  0  0  0  0  0  0  0999 V2000
   -1.3148   -5.7456   56.2716 C   0  0  0  0  0  0  0  0  0  0  0  0
   -5.8072   -6.0043   48.6929 C   0  0  0  0  0  0  0  0  0  0  0  0
   -5.5630   -5.3276   47.5242 C   0  0  0  0  0  0  0  0  0  0  0  0
   -4.9956   -4.0487   47.5164 C   0  0  0  0  0  0  0  0  0  0  0  0
   -4.6752   -3.4545   48.7150 C   0  0  0  0  0  0  0  0  0  0  0  0
   -4.9185   -4.1326   49.9214 C   0  0  0  0  0  0  0  0  0  0  0  0
   -5.4815   -5.3960   49.8821 C   0  0  0  0  0  0  0  0  0  0  0  0
   -4.5973   -3.5472   51.1604 N   0  0  0  0  0  0  0  0  0  0  0  0
   -4.7338   -2.0768   51.1888 C   0  0  0  0  0  0  0  0  0  0  0  0
   -3.9569   -1.4742   50.0278 C   0  0  1  0  0  0  0  0  0  0  0  0
   -4.1132   -2.1933   48.8316 O   0  0  0  0  0  0  0  0  0  0  0  0
   -4.4590   -0.1022   49.8183 C   0  0  0  0  0  0  0  0  0  0  0  0
   -5.4499    0.2533   50.4930 O   0  0  0  0  0  0  0  0  0  0  0  0
   -3.8602    0.7636   48.9107 N   0  0  0  0  0  0  0  0  0  0  0  0
   -4.1427   -4.2635   52.2495 C   0  0  0  0  0  0  0  0  0  0  0  0
   -4.2981   -3.5946   53.3820 O   0  0  0  0  0  0  0  0  0  0  0  0
   -3.5379   -5.5602   52.4429 C   0  0  0  0  0  0  0  0  0  0  0  0
   -2.9467   -5.6232   54.1809 S   0  0  0  0  0  0  0  0  0  0  0  0
   -2.2127   -7.2335   54.5501 C   0  0  0  0  0  0  0  0  0  0  0  0
   -1.5455   -7.1561   55.9209 C   0  0  0  0  0  0  0  0  0  0  0  0
   -0.0736   -5.1569   56.0772 O   0  0  0  0  0  0  0  0  0  0  0  0
   -2.2221   -4.9912   56.7654 O   0  0  0  0  0  0  0  0  0  0  0  0
 20  1  1  0
  1 21  1  0
  1 22  2  0
  2  3  2  0
  7  2  1  0
  4  3  1  0
  5  4  2  0
  6  5  1  0
  5 11  1  0
  6  7  2  0
  8  6  1  0
  8  9  1  0
 15  8  1  0
  9 10  1  0
 10 11  1  0
 10 12  1  6
 12 13  2  0
 12 14  1  0
 15 16  2  0
 17 15  1  0
 18 17  1  0
 19 18  1  0
 19 20  1  0
M  END
$$$$
