
     RDKit          3D

 22 23  0  0  0  0  0  0  0  0999 V2000
    5.2276    5.5664   31.5154 C   0  0  0  0  0  0  0  0  0  0  0  0
    0.2405   -1.8534   28.4480 C   0  0  0  0  0  0  0  0  0  0  0  0
    0.7535   -3.0491   28.0114 C   0  0  0  0  0  0  0  0  0  0  0  0
    1.7826   -3.1096   27.0655 C   0  0  0  0  0  0  0  0  0  0  0  0
    2.2925   -1.9363   26.5596 C   0  0  0  0  0  0  0  0  0  0  0  0
    1.7792   -0.7029   26.9950 C   0  0  0  0  0  0  0  0  0  0  0  0
    0.7610   -0.6902   27.9319 C   0  0  0  0  0  0  0  0  0  0  0  0
    2.2856    0.5112   26.4945 N   0  0  0  0  0  0  0  0  0  0  0  0
    2.7445    0.4435   25.0922 C   0  0  0  0  0  0  0  0  0  0  0  0
    3.7165   -0.7161   24.9335 C   0  0  1  0  0  0  0  0  0  0  0  0
    3.3075   -1.8719   25.6185 O   0  0  0  0  0  0  0  0  0  0  0  0
    3.8050   -1.0313   23.4944 C   0  0  0  0  0  0  0  0  0  0  0  0
    3.8851   -0.0675   22.7017 O   0  0  0  0  0  0  0  0  0  0  0  0
    3.7998   -2.3423   23.0326 N   0  0  0  0  0  0  0  0  0  0  0  0
    2.3993    1.6614   27.2495 C   0  0  0  0  0  0  0  0  0  0  0  0
    2.1979    2.7515   26.5247 O   0  0  0  0  0  0  0  0  0  0  0  0
    2.6883    1.9540   28.6335 C   0  0  0  0  0  0  0  0  0  0  0  0
    4.2237    2.9619   28.6601 S   0  0  0  0  0  0  0  0  0  0  0  0
    4.0243    4.4053   29.7301 C   0  0  0  0  0  0  0  0  0  0  0  0
    4.9480    4.2434   30.9347 C   0  0  0  0  0  0  0  0  0  0  0  0
    6.1813    6.4035   30.9547 O   0  0  0  0  0  0  0  0  0  0  0  0
    4.6235    6.0175   32.5487 O   0  0  0  0  0  0  0  0  0  0  0  0
 20  1  1  0
  1 21  1  0
  1 22  2  0
  2  3  2  0
  7  2  1  0
  4  3  1  0
  5  4  2  0
  6  5  1  0
  5 11  1  0
  6  7  2  0
  8  6  1  0
  8  9  1  0
 15  8  1  0
  9 10  1  0
 10 11  1  0
 10 12  1  6
 12 13  2  0
 12 14  1  0
 15 16  2  0
 17 15  1  0
 18 17  1  0
 19 18  1  0
 19 20  1  0
M  END
$$$$
