
     RDKit          3D

 22 23  0  0  0  0  0  0  0  0999 V2000
   -3.5457    0.3938   50.6535 C   0  0  0  0  0  0  0  0  0  0  0  0
   -7.1306   -6.2370   46.1751 C   0  0  0  0  0  0  0  0  0  0  0  0
   -7.9014   -7.3710   46.1185 C   0  0  0  0  0  0  0  0  0  0  0  0
   -8.0584   -8.2129   47.2249 C   0  0  0  0  0  0  0  0  0  0  0  0
   -7.4207   -7.8933   48.4012 C   0  0  0  0  0  0  0  0  0  0  0  0
   -6.6272   -6.7361   48.4772 C   0  0  0  0  0  0  0  0  0  0  0  0
   -6.4997   -5.9324   47.3581 C   0  0  0  0  0  0  0  0  0  0  0  0
   -5.9667   -6.3862   49.6698 N   0  0  0  0  0  0  0  0  0  0  0  0
   -5.5325   -7.5406   50.4825 C   0  0  0  0  0  0  0  0  0  0  0  0
   -6.7135   -8.4726   50.7089 C   0  0  1  0  0  0  0  0  0  0  0  0
   -7.4994   -8.6510   49.5588 O   0  0  0  0  0  0  0  0  0  0  0  0
   -6.1754   -9.7850   51.1166 C   0  0  0  0  0  0  0  0  0  0  0  0
   -4.9644   -9.8361   51.4238 O   0  0  0  0  0  0  0  0  0  0  0  0
   -6.9756  -10.9207   51.1593 N   0  0  0  0  0  0  0  0  0  0  0  0
   -5.7780   -5.0833   50.0853 C   0  0  0  0  0  0  0  0  0  0  0  0
   -5.6922   -4.9916   51.4038 O   0  0  0  0  0  0  0  0  0  0  0  0
   -5.6569   -3.8049   49.4255 C   0  0  0  0  0  0  0  0  0  0  0  0
   -4.1326   -3.0091   50.0715 S   0  0  0  0  0  0  0  0  0  0  0  0
   -4.5400   -1.7459   51.2988 C   0  0  0  0  0  0  0  0  0  0  0  0
   -4.7670   -0.4230   50.5716 C   0  0  0  0  0  0  0  0  0  0  0  0
   -3.6103    1.7789   50.6060 O   0  0  0  0  0  0  0  0  0  0  0  0
   -2.3755   -0.1092   50.7710 O   0  0  0  0  0  0  0  0  0  0  0  0
 20  1  1  0
  1 21  1  0
  1 22  2  0
  2  3  2  0
  7  2  1  0
  4  3  1  0
  5  4  2  0
  6  5  1  0
  5 11  1  0
  6  7  2  0
  8  6  1  0
  8  9  1  0
 15  8  1  0
  9 10  1  0
 10 11  1  0
 10 12  1  6
 12 13  2  0
 12 14  1  0
 15 16  2  0
 17 15  1  0
 18 17  1  0
 19 18  1  0
 19 20  1  0
M  END
$$$$
