
     RDKit          3D

 22 23  0  0  0  0  0  0  0  0999 V2000
  -16.0932   12.1082   34.8684 C   0  0  0  0  0  0  0  0  0  0  0  0
  -18.9349    3.6977   34.1417 C   0  0  0  0  0  0  0  0  0  0  0  0
  -19.6897    2.8273   33.3960 C   0  0  0  0  0  0  0  0  0  0  0  0
  -21.0294    3.0884   33.0885 C   0  0  0  0  0  0  0  0  0  0  0  0
  -21.6043    4.2506   33.5483 C   0  0  0  0  0  0  0  0  0  0  0  0
  -20.8465    5.1533   34.3135 C   0  0  0  0  0  0  0  0  0  0  0  0
  -19.5250    4.8543   34.5939 C   0  0  0  0  0  0  0  0  0  0  0  0
  -21.4110    6.3500   34.7932 N   0  0  0  0  0  0  0  0  0  0  0  0
  -22.8493    6.2544   35.1153 C   0  0  0  0  0  0  0  0  0  0  0  0
  -23.5980    5.6812   33.9215 C   0  0  1  0  0  0  0  0  0  0  0  0
  -22.9201    4.6139   33.3102 O   0  0  0  0  0  0  0  0  0  0  0  0
  -24.9031    5.1910   34.4059 C   0  0  0  0  0  0  0  0  0  0  0  0
  -25.3256    5.6603   35.4851 O   0  0  0  0  0  0  0  0  0  0  0  0
  -25.6371    4.2471   33.6971 N   0  0  0  0  0  0  0  0  0  0  0  0
  -20.7095    7.5332   34.9100 C   0  0  0  0  0  0  0  0  0  0  0  0
  -21.3298    8.4013   35.6949 O   0  0  0  0  0  0  0  0  0  0  0  0
  -19.4688    8.0455   34.3781 C   0  0  0  0  0  0  0  0  0  0  0  0
  -18.7757    9.1886   35.6379 S   0  0  0  0  0  0  0  0  0  0  0  0
  -17.2584    9.9638   35.0340 C   0  0  0  0  0  0  0  0  0  0  0  0
  -17.3334   11.4606   35.3246 C   0  0  0  0  0  0  0  0  0  0  0  0
  -15.9480   13.4869   34.9217 O   0  0  0  0  0  0  0  0  0  0  0  0
  -15.0945   11.4567   34.4054 O   0  0  0  0  0  0  0  0  0  0  0  0
 20  1  1  0
  1 21  1  0
  1 22  2  0
  2  3  2  0
  7  2  1  0
  4  3  1  0
  5  4  2  0
  6  5  1  0
  5 11  1  0
  6  7  2  0
  8  6  1  0
  8  9  1  0
 15  8  1  0
  9 10  1  0
 10 11  1  0
 10 12  1  1
 12 13  2  0
 12 14  1  0
 15 16  2  0
 17 15  1  0
 18 17  1  0
 19 18  1  0
 19 20  1  0
M  END
$$$$
