
     RDKit          3D

 22 24  0  0  0  0  0  0  0  0999 V2000
  -21.8669   -5.8708   32.8913 S   0  0  1  0  0  6  0  0  0  0  0  0
  -27.0680   -2.2698   34.0723 Br  0  0  0  0  0  0  0  0  0  0  0  0
  -25.5319   -3.3381   33.7206 C   0  0  0  0  0  0  0  0  0  0  0  0
  -20.8565   -5.1519   31.6603 N   0  0  0  0  0  0  0  0  0  0  0  0
  -22.3378   -7.1901   32.3031 O   0  0  0  0  0  0  0  0  0  0  0  0
  -24.2963   -2.9458   34.1851 C   0  0  0  0  0  0  0  0  0  0  0  0
  -23.5618   -5.0130   29.2265 N   0  0  0  0  0  0  0  0  0  0  0  0
  -21.0888   -6.2000   34.1097 O   0  0  0  0  0  0  0  0  0  0  0  0
  -23.2044   -3.7362   33.9167 C   0  0  0  0  0  0  0  0  0  0  0  0
  -23.2796   -4.9220   33.1945 C   0  0  0  0  0  0  0  0  0  0  0  0
  -24.5509   -5.2834   32.7418 C   0  0  0  0  0  0  0  0  0  0  0  0
  -25.6437   -4.4966   33.0080 C   0  0  0  0  0  0  0  0  0  0  0  0
  -21.9662   -3.3526   34.3765 C   0  0  0  0  0  0  0  0  0  0  0  0
  -21.8800   -2.1772   35.0944 C   0  0  0  0  0  0  0  0  0  0  0  0
  -22.9831   -1.3919   35.3578 C   0  0  0  0  0  0  0  0  0  0  0  0
  -24.2243   -1.7652   34.9036 C   0  0  0  0  0  0  0  0  0  0  0  0
  -21.7366   -4.4420   30.7757 C   0  0  0  0  0  0  0  0  0  0  0  0
  -22.3490   -5.2965   29.7396 C   0  0  0  0  0  0  0  0  0  0  0  0
  -24.1618   -5.7564   28.2844 C   0  0  0  0  0  0  0  0  0  0  0  0
  -23.5583   -6.8941   27.7636 C   0  0  0  0  0  0  0  0  0  0  0  0
  -22.3141   -7.2143   28.2672 C   0  0  0  0  0  0  0  0  0  0  0  0
  -21.7178   -6.4214   29.2456 C   0  0  0  0  0  0  0  0  0  0  0  0
  1  4  1  6
  1  5  2  0
  1  8  2  0
  1 10  1  0
  3  2  1  0
  6  3  2  0
 12  3  1  0
 17  4  1  0
  9  6  1  0
  6 16  1  0
 18  7  2  0
  7 19  1  0
 10  9  2  0
  9 13  1  0
 10 11  1  0
 11 12  2  0
 13 14  2  0
 14 15  1  0
 16 15  2  0
 17 18  1  0
 18 22  1  0
 19 20  2  0
 20 21  1  0
 21 22  2  0
M  END
$$$$
