
     RDKit          3D

 22 24  0  0  0  0  0  0  0  0999 V2000
  -22.4682   -3.1210   29.7635 S   0  0  1  0  0  6  0  0  0  0  0  0
  -25.4855   -4.1856   35.3470 Br  0  0  0  0  0  0  0  0  0  0  0  0
  -24.5898   -3.8682   33.6974 C   0  0  0  0  0  0  0  0  0  0  0  0
  -21.8077   -4.5985   29.1052 N   0  0  0  0  0  0  0  0  0  0  0  0
  -21.2663   -2.2353   30.0450 O   0  0  0  0  0  0  0  0  0  0  0  0
  -25.0850   -4.4015   32.5284 C   0  0  0  0  0  0  0  0  0  0  0  0
  -21.4219   -7.1226   30.5778 N   0  0  0  0  0  0  0  0  0  0  0  0
  -23.3014   -2.4062   28.7670 O   0  0  0  0  0  0  0  0  0  0  0  0
  -24.4181   -4.1563   31.3519 C   0  0  0  0  0  0  0  0  0  0  0  0
  -23.2593   -3.3917   31.2765 C   0  0  0  0  0  0  0  0  0  0  0  0
  -22.7907   -2.8696   32.4846 C   0  0  0  0  0  0  0  0  0  0  0  0
  -23.4541   -3.1124   33.6615 C   0  0  0  0  0  0  0  0  0  0  0  0
  -24.9053   -4.6847   30.1791 C   0  0  0  0  0  0  0  0  0  0  0  0
  -26.0550   -5.4453   30.2424 C   0  0  0  0  0  0  0  0  0  0  0  0
  -26.7159   -5.6846   31.4293 C   0  0  0  0  0  0  0  0  0  0  0  0
  -26.2386   -5.1621   32.6062 C   0  0  0  0  0  0  0  0  0  0  0  0
  -20.6347   -4.8986   29.8765 C   0  0  0  0  0  0  0  0  0  0  0  0
  -20.8485   -5.9456   30.8948 C   0  0  0  0  0  0  0  0  0  0  0  0
  -21.6385   -8.1058   31.4647 C   0  0  0  0  0  0  0  0  0  0  0  0
  -21.2774   -7.9723   32.7995 C   0  0  0  0  0  0  0  0  0  0  0  0
  -20.6869   -6.7782   33.1592 C   0  0  0  0  0  0  0  0  0  0  0  0
  -20.4758   -5.7765   32.2140 C   0  0  0  0  0  0  0  0  0  0  0  0
  1  4  1  6
  1  5  2  0
  1  8  2  0
  1 10  1  0
  3  2  1  0
  6  3  2  0
 12  3  1  0
 17  4  1  0
  9  6  1  0
  6 16  1  0
 18  7  2  0
  7 19  1  0
 10  9  2  0
  9 13  1  0
 10 11  1  0
 11 12  2  0
 13 14  2  0
 14 15  1  0
 16 15  2  0
 17 18  1  0
 18 22  1  0
 19 20  2  0
 20 21  1  0
 21 22  2  0
M  END
$$$$
