
     RDKit          3D

 22 24  0  0  0  0  0  0  0  0999 V2000
  -22.6276   -6.4267   31.0746 S   0  0  1  0  0  6  0  0  0  0  0  0
  -27.0536   -4.0688   35.1076 Br  0  0  0  0  0  0  0  0  0  0  0  0
  -25.7413   -4.7664   33.9179 C   0  0  0  0  0  0  0  0  0  0  0  0
  -22.3154   -5.3207   29.7585 N   0  0  0  0  0  0  0  0  0  0  0  0
  -23.2475   -7.6539   30.4283 O   0  0  0  0  0  0  0  0  0  0  0  0
  -26.0583   -4.9975   32.5979 C   0  0  0  0  0  0  0  0  0  0  0  0
  -19.6280   -4.4905   30.7181 N   0  0  0  0  0  0  0  0  0  0  0  0
  -21.3697   -6.8732   31.7200 O   0  0  0  0  0  0  0  0  0  0  0  0
  -25.0913   -5.5015   31.7612 C   0  0  0  0  0  0  0  0  0  0  0  0
  -23.7977   -5.7939   32.1786 C   0  0  0  0  0  0  0  0  0  0  0  0
  -23.5178   -5.5451   33.5245 C   0  0  0  0  0  0  0  0  0  0  0  0
  -24.4809   -5.0417   34.3631 C   0  0  0  0  0  0  0  0  0  0  0  0
  -25.3987   -5.7356   30.4411 C   0  0  0  0  0  0  0  0  0  0  0  0
  -26.6799   -5.4489   30.0161 C   0  0  0  0  0  0  0  0  0  0  0  0
  -27.6422   -4.9432   30.8652 C   0  0  0  0  0  0  0  0  0  0  0  0
  -27.3466   -4.7056   32.1851 C   0  0  0  0  0  0  0  0  0  0  0  0
  -22.0223   -4.0491   30.3570 C   0  0  0  0  0  0  0  0  0  0  0  0
  -20.8096   -4.0571   31.1985 C   0  0  0  0  0  0  0  0  0  0  0  0
  -18.4978   -4.5181   31.4407 C   0  0  0  0  0  0  0  0  0  0  0  0
  -18.4704   -4.0918   32.7625 C   0  0  0  0  0  0  0  0  0  0  0  0
  -19.6644   -3.6411   33.2871 C   0  0  0  0  0  0  0  0  0  0  0  0
  -20.8210   -3.6250   32.5103 C   0  0  0  0  0  0  0  0  0  0  0  0
  1  4  1  6
  1  5  2  0
  1  8  2  0
  1 10  1  0
  3  2  1  0
  6  3  2  0
 12  3  1  0
 17  4  1  0
  9  6  1  0
  6 16  1  0
 18  7  2  0
  7 19  1  0
 10  9  2  0
  9 13  1  0
 10 11  1  0
 11 12  2  0
 13 14  2  0
 14 15  1  0
 16 15  2  0
 17 18  1  0
 18 22  1  0
 19 20  2  0
 20 21  1  0
 21 22  2  0
M  END
$$$$
