
     RDKit          3D

 22 24  0  0  0  0  0  0  0  0999 V2000
  -21.2540   -4.0140   32.0085 S   0  0  1  0  0  6  0  0  0  0  0  0
  -26.2499   -5.5282   35.7718 Br  0  0  0  0  0  0  0  0  0  0  0  0
  -24.7706   -5.0846   34.6586 C   0  0  0  0  0  0  0  0  0  0  0  0
  -21.7284   -3.8871   30.3317 N   0  0  0  0  0  0  0  0  0  0  0  0
  -20.2668   -5.1677   32.0595 O   0  0  0  0  0  0  0  0  0  0  0  0
  -24.5959   -3.7892   34.2251 C   0  0  0  0  0  0  0  0  0  0  0  0
  -23.5800   -6.9316   29.6507 N   0  0  0  0  0  0  0  0  0  0  0  0
  -20.5227   -2.8059   32.4599 O   0  0  0  0  0  0  0  0  0  0  0  0
  -23.5192   -3.4972   33.4224 C   0  0  0  0  0  0  0  0  0  0  0  0
  -22.5873   -4.4473   33.0199 C   0  0  0  0  0  0  0  0  0  0  0  0
  -22.8012   -5.7484   33.4815 C   0  0  0  0  0  0  0  0  0  0  0  0
  -23.8754   -6.0438   34.2834 C   0  0  0  0  0  0  0  0  0  0  0  0
  -23.3365   -2.2062   32.9845 C   0  0  0  0  0  0  0  0  0  0  0  0
  -24.2556   -1.2550   33.3779 C   0  0  0  0  0  0  0  0  0  0  0  0
  -25.3326   -1.5600   34.1840 C   0  0  0  0  0  0  0  0  0  0  0  0
  -25.5249   -2.8455   34.6272 C   0  0  0  0  0  0  0  0  0  0  0  0
  -21.8112   -5.2296   29.8299 C   0  0  0  0  0  0  0  0  0  0  0  0
  -23.1857   -5.6528   29.4973 C   0  0  0  0  0  0  0  0  0  0  0  0
  -24.8162   -7.3671   29.3634 C   0  0  0  0  0  0  0  0  0  0  0  0
  -25.7940   -6.5082   28.8775 C   0  0  0  0  0  0  0  0  0  0  0  0
  -25.4239   -5.1898   28.7081 C   0  0  0  0  0  0  0  0  0  0  0  0
  -24.1317   -4.7690   29.0158 C   0  0  0  0  0  0  0  0  0  0  0  0
  1  4  1  6
  1  5  2  0
  1  8  2  0
  1 10  1  0
  3  2  1  0
  6  3  2  0
 12  3  1  0
 17  4  1  0
  9  6  1  0
  6 16  1  0
 18  7  2  0
  7 19  1  0
 10  9  2  0
  9 13  1  0
 10 11  1  0
 11 12  2  0
 13 14  2  0
 14 15  1  0
 16 15  2  0
 17 18  1  0
 18 22  1  0
 19 20  2  0
 20 21  1  0
 21 22  2  0
M  END
$$$$
