
     RDKit          3D

 22 24  0  0  0  0  0  0  0  0999 V2000
  -22.0327   -4.5369   32.2212 S   0  0  1  0  0  6  0  0  0  0  0  0
  -26.9880   -2.9227   35.9966 Br  0  0  0  0  0  0  0  0  0  0  0  0
  -25.5232   -3.4046   34.8802 C   0  0  0  0  0  0  0  0  0  0  0  0
  -22.2378   -3.9129   30.6022 N   0  0  0  0  0  0  0  0  0  0  0  0
  -22.0345   -6.0487   32.0712 O   0  0  0  0  0  0  0  0  0  0  0  0
  -24.7121   -2.4290   34.3448 C   0  0  0  0  0  0  0  0  0  0  0  0
  -22.8410   -6.0568   28.8700 N   0  0  0  0  0  0  0  0  0  0  0  0
  -20.7125   -4.1652   32.7843 O   0  0  0  0  0  0  0  0  0  0  0  0
  -23.6617   -2.8053   33.5423 C   0  0  0  0  0  0  0  0  0  0  0  0
  -23.3701   -4.1304   33.2382 C   0  0  0  0  0  0  0  0  0  0  0  0
  -24.2169   -5.0882   33.8013 C   0  0  0  0  0  0  0  0  0  0  0  0
  -25.2670   -4.7161   34.6033 C   0  0  0  0  0  0  0  0  0  0  0  0
  -22.8462   -1.8379   33.0030 C   0  0  0  0  0  0  0  0  0  0  0  0
  -23.1266   -0.5193   33.2982 C   0  0  0  0  0  0  0  0  0  0  0  0
  -24.1838   -0.1535   34.1051 C   0  0  0  0  0  0  0  0  0  0  0  0
  -25.0046   -1.1109   34.6490 C   0  0  0  0  0  0  0  0  0  0  0  0
  -23.6050   -4.1610   30.2411 C   0  0  0  0  0  0  0  0  0  0  0  0
  -23.8163   -5.4682   29.5889 C   0  0  0  0  0  0  0  0  0  0  0  0
  -22.9819   -7.2426   28.2582 C   0  0  0  0  0  0  0  0  0  0  0  0
  -24.1703   -7.9586   28.3271 C   0  0  0  0  0  0  0  0  0  0  0  0
  -25.1915   -7.3844   29.0561 C   0  0  0  0  0  0  0  0  0  0  0  0
  -25.0134   -6.1513   29.6798 C   0  0  0  0  0  0  0  0  0  0  0  0
  1  4  1  6
  1  5  2  0
  1  8  2  0
  1 10  1  0
  3  2  1  0
  6  3  2  0
 12  3  1  0
 17  4  1  0
  9  6  1  0
  6 16  1  0
 18  7  2  0
  7 19  1  0
 10  9  2  0
  9 13  1  0
 10 11  1  0
 11 12  2  0
 13 14  2  0
 14 15  1  0
 16 15  2  0
 17 18  1  0
 18 22  1  0
 19 20  2  0
 20 21  1  0
 21 22  2  0
M  END
$$$$
