
     RDKit          3D

 22 24  0  0  0  0  0  0  0  0999 V2000
  -21.1450   -5.4655   32.2534 S   0  0  1  0  0  6  0  0  0  0  0  0
  -27.1185   -4.4576   34.4249 Br  0  0  0  0  0  0  0  0  0  0  0  0
  -25.3520   -4.7602   33.7827 C   0  0  0  0  0  0  0  0  0  0  0  0
  -21.0809   -6.7175   31.0364 N   0  0  0  0  0  0  0  0  0  0  0  0
  -20.3268   -5.9965   33.4181 O   0  0  0  0  0  0  0  0  0  0  0  0
  -24.5265   -3.6942   33.5025 C   0  0  0  0  0  0  0  0  0  0  0  0
  -23.4589   -5.0420   29.0558 N   0  0  0  0  0  0  0  0  0  0  0  0
  -20.4770   -4.2246   31.7928 O   0  0  0  0  0  0  0  0  0  0  0  0
  -23.2561   -3.9419   33.0402 C   0  0  0  0  0  0  0  0  0  0  0  0
  -22.7536   -5.2224   32.8377 C   0  0  0  0  0  0  0  0  0  0  0  0
  -23.6231   -6.2750   33.1339 C   0  0  0  0  0  0  0  0  0  0  0  0
  -24.8925   -6.0316   33.5959 C   0  0  0  0  0  0  0  0  0  0  0  0
  -22.4243   -2.8835   32.7576 C   0  0  0  0  0  0  0  0  0  0  0  0
  -22.9128   -1.6080   32.9550 C   0  0  0  0  0  0  0  0  0  0  0  0
  -24.1899   -1.3718   33.4196 C   0  0  0  0  0  0  0  0  0  0  0  0
  -25.0291   -2.4208   33.7049 C   0  0  0  0  0  0  0  0  0  0  0  0
  -21.3461   -6.0766   29.7795 C   0  0  0  0  0  0  0  0  0  0  0  0
  -22.7606   -6.1519   29.3642 C   0  0  0  0  0  0  0  0  0  0  0  0
  -24.7448   -5.0561   28.6733 C   0  0  0  0  0  0  0  0  0  0  0  0
  -25.4580   -6.2435   28.5675 C   0  0  0  0  0  0  0  0  0  0  0  0
  -24.7729   -7.4008   28.8762 C   0  0  0  0  0  0  0  0  0  0  0  0
  -23.4373   -7.3523   29.2704 C   0  0  0  0  0  0  0  0  0  0  0  0
  1  4  1  6
  1  5  2  0
  1  8  2  0
  1 10  1  0
  3  2  1  0
  6  3  2  0
 12  3  1  0
 17  4  1  0
  9  6  1  0
  6 16  1  0
 18  7  2  0
  7 19  1  0
 10  9  2  0
  9 13  1  0
 10 11  1  0
 11 12  2  0
 13 14  2  0
 14 15  1  0
 16 15  2  0
 17 18  1  0
 18 22  1  0
 19 20  2  0
 20 21  1  0
 21 22  2  0
M  END
$$$$
