
     RDKit          3D

 22 24  0  0  0  0  0  0  0  0999 V2000
  -21.6194   -4.6125   34.3559 S   0  0  1  0  0  6  0  0  0  0  0  0
  -27.2177   -2.2411   32.2468 Br  0  0  0  0  0  0  0  0  0  0  0  0
  -25.5599   -2.9384   32.8711 C   0  0  0  0  0  0  0  0  0  0  0  0
  -20.3209   -4.3428   33.2184 N   0  0  0  0  0  0  0  0  0  0  0  0
  -21.7972   -6.1203   34.4108 O   0  0  0  0  0  0  0  0  0  0  0  0
  -25.3885   -4.2983   33.0042 C   0  0  0  0  0  0  0  0  0  0  0  0
  -22.1265   -5.9945   30.5725 N   0  0  0  0  0  0  0  0  0  0  0  0
  -21.2446   -4.1766   35.7226 O   0  0  0  0  0  0  0  0  0  0  0  0
  -24.1813   -4.7742   33.4572 C   0  0  0  0  0  0  0  0  0  0  0  0
  -23.1128   -3.9497   33.7917 C   0  0  0  0  0  0  0  0  0  0  0  0
  -23.3284   -2.5775   33.6422 C   0  0  0  0  0  0  0  0  0  0  0  0
  -24.5327   -2.0986   33.1901 C   0  0  0  0  0  0  0  0  0  0  0  0
  -24.0007   -6.1309   33.5934 C   0  0  0  0  0  0  0  0  0  0  0  0
  -25.0547   -6.9586   33.2642 C   0  0  0  0  0  0  0  0  0  0  0  0
  -26.2620   -6.4694   32.8105 C   0  0  0  0  0  0  0  0  0  0  0  0
  -26.4535   -5.1167   32.6706 C   0  0  0  0  0  0  0  0  0  0  0  0
  -20.4180   -5.3852   32.2361 C   0  0  0  0  0  0  0  0  0  0  0  0
  -21.3229   -5.0599   31.1162 C   0  0  0  0  0  0  0  0  0  0  0  0
  -22.9662   -5.7507   29.5549 C   0  0  0  0  0  0  0  0  0  0  0  0
  -23.0651   -4.4894   28.9811 C   0  0  0  0  0  0  0  0  0  0  0  0
  -22.2555   -3.5074   29.5141 C   0  0  0  0  0  0  0  0  0  0  0  0
  -21.3938   -3.7928   30.5713 C   0  0  0  0  0  0  0  0  0  0  0  0
  1  4  1  6
  1  5  2  0
  1  8  2  0
  1 10  1  0
  3  2  1  0
  6  3  2  0
 12  3  1  0
 17  4  1  0
  9  6  1  0
  6 16  1  0
 18  7  2  0
  7 19  1  0
 10  9  2  0
  9 13  1  0
 10 11  1  0
 11 12  2  0
 13 14  2  0
 14 15  1  0
 16 15  2  0
 17 18  1  0
 18 22  1  0
 19 20  2  0
 20 21  1  0
 21 22  2  0
M  END
$$$$
