
     RDKit          3D

 22 24  0  0  0  0  0  0  0  0999 V2000
  -21.6357   -3.3852   31.8943 S   0  0  1  0  0  6  0  0  0  0  0  0
  -27.1431   -6.5203   33.0138 Br  0  0  0  0  0  0  0  0  0  0  0  0
  -25.5125   -5.5938   32.6868 C   0  0  0  0  0  0  0  0  0  0  0  0
  -20.5701   -4.3108   30.8644 N   0  0  0  0  0  0  0  0  0  0  0  0
  -20.8991   -3.2515   33.2162 O   0  0  0  0  0  0  0  0  0  0  0  0
  -25.2861   -5.0042   31.4631 C   0  0  0  0  0  0  0  0  0  0  0  0
  -21.1824   -6.7282   29.2710 N   0  0  0  0  0  0  0  0  0  0  0  0
  -21.8350   -2.0107   31.3755 O   0  0  0  0  0  0  0  0  0  0  0  0
  -24.1001   -4.3417   31.2545 C   0  0  0  0  0  0  0  0  0  0  0  0
  -23.1063   -4.2331   32.2208 C   0  0  0  0  0  0  0  0  0  0  0  0
  -23.3758   -4.8451   33.4474 C   0  0  0  0  0  0  0  0  0  0  0  0
  -24.5591   -5.5076   33.6595 C   0  0  0  0  0  0  0  0  0  0  0  0
  -23.8650   -3.7496   30.0355 C   0  0  0  0  0  0  0  0  0  0  0  0
  -24.8447   -3.8512   29.0690 C   0  0  0  0  0  0  0  0  0  0  0  0
  -26.0315   -4.5188   29.2899 C   0  0  0  0  0  0  0  0  0  0  0  0
  -26.2769   -5.1137   30.5031 C   0  0  0  0  0  0  0  0  0  0  0  0
  -20.5550   -5.6463   31.3908 C   0  0  0  0  0  0  0  0  0  0  0  0
  -21.3557   -6.6023   30.6009 C   0  0  0  0  0  0  0  0  0  0  0  0
  -21.8833   -7.5809   28.5082 C   0  0  0  0  0  0  0  0  0  0  0  0
  -22.8568   -8.4096   29.0518 C   0  0  0  0  0  0  0  0  0  0  0  0
  -23.0606   -8.3066   30.4126 C   0  0  0  0  0  0  0  0  0  0  0  0
  -22.3158   -7.4108   31.1771 C   0  0  0  0  0  0  0  0  0  0  0  0
  1  4  1  6
  1  5  2  0
  1  8  2  0
  1 10  1  0
  3  2  1  0
  6  3  2  0
 12  3  1  0
 17  4  1  0
  9  6  1  0
  6 16  1  0
 18  7  2  0
  7 19  1  0
 10  9  2  0
  9 13  1  0
 10 11  1  0
 11 12  2  0
 13 14  2  0
 14 15  1  0
 16 15  2  0
 17 18  1  0
 18 22  1  0
 19 20  2  0
 20 21  1  0
 21 22  2  0
M  END
$$$$
