
     RDKit          3D

 22 24  0  0  0  0  0  0  0  0999 V2000
  -21.0562   -5.1750   32.5424 S   0  0  1  0  0  6  0  0  0  0  0  0
  -25.8925   -2.4367   35.7866 Br  0  0  0  0  0  0  0  0  0  0  0  0
  -24.4621   -3.2505   34.8295 C   0  0  0  0  0  0  0  0  0  0  0  0
  -21.5933   -5.8114   31.0063 N   0  0  0  0  0  0  0  0  0  0  0  0
  -20.5892   -6.3837   33.3356 O   0  0  0  0  0  0  0  0  0  0  0  0
  -23.8632   -2.5843   33.7837 C   0  0  0  0  0  0  0  0  0  0  0  0
  -24.1355   -5.3329   29.7231 N   0  0  0  0  0  0  0  0  0  0  0  0
  -19.8787   -4.2885   32.3820 O   0  0  0  0  0  0  0  0  0  0  0  0
  -22.8327   -3.1955   33.1102 C   0  0  0  0  0  0  0  0  0  0  0  0
  -22.3570   -4.4622   33.4300 C   0  0  0  0  0  0  0  0  0  0  0  0
  -22.9918   -5.1031   34.4967 C   0  0  0  0  0  0  0  0  0  0  0  0
  -24.0213   -4.4958   35.1717 C   0  0  0  0  0  0  0  0  0  0  0  0
  -22.2283   -2.5378   32.0642 C   0  0  0  0  0  0  0  0  0  0  0  0
  -22.6925   -1.2798   31.7381 C   0  0  0  0  0  0  0  0  0  0  0  0
  -23.7278   -0.6763   32.4215 C   0  0  0  0  0  0  0  0  0  0  0  0
  -24.3386   -1.3236   33.4674 C   0  0  0  0  0  0  0  0  0  0  0  0
  -22.7410   -6.6281   31.2836 C   0  0  0  0  0  0  0  0  0  0  0  0
  -24.0190   -6.0075   30.8832 C   0  0  0  0  0  0  0  0  0  0  0  0
  -25.2731   -4.7512   29.3134 C   0  0  0  0  0  0  0  0  0  0  0  0
  -26.4329   -4.8072   30.0760 C   0  0  0  0  0  0  0  0  0  0  0  0
  -26.3491   -5.4909   31.2715 C   0  0  0  0  0  0  0  0  0  0  0  0
  -25.1525   -6.0842   31.6687 C   0  0  0  0  0  0  0  0  0  0  0  0
  1  4  1  6
  1  5  2  0
  1  8  2  0
  1 10  1  0
  3  2  1  0
  6  3  2  0
 12  3  1  0
 17  4  1  0
  9  6  1  0
  6 16  1  0
 18  7  2  0
  7 19  1  0
 10  9  2  0
  9 13  1  0
 10 11  1  0
 11 12  2  0
 13 14  2  0
 14 15  1  0
 16 15  2  0
 17 18  1  0
 18 22  1  0
 19 20  2  0
 20 21  1  0
 21 22  2  0
M  END
$$$$
