
     RDKit          3D

 22 24  0  0  0  0  0  0  0  0999 V2000
  -22.0499   -4.3775   30.5575 S   0  0  1  0  0  6  0  0  0  0  0  0
  -24.9816   -7.5162   35.3499 Br  0  0  0  0  0  0  0  0  0  0  0  0
  -24.1104   -6.5880   33.9344 C   0  0  0  0  0  0  0  0  0  0  0  0
  -22.2780   -2.6500   30.6855 N   0  0  0  0  0  0  0  0  0  0  0  0
  -22.7705   -4.7836   29.2832 O   0  0  0  0  0  0  0  0  0  0  0  0
  -24.8271   -6.1794   32.8318 C   0  0  0  0  0  0  0  0  0  0  0  0
  -22.5280   -1.3642   34.1387 N   0  0  0  0  0  0  0  0  0  0  0  0
  -20.6209   -4.7249   30.3693 O   0  0  0  0  0  0  0  0  0  0  0  0
  -24.1726   -5.5112   31.8247 C   0  0  0  0  0  0  0  0  0  0  0  0
  -22.8130   -5.2222   31.8584 C   0  0  0  0  0  0  0  0  0  0  0  0
  -22.1234   -5.6539   32.9941 C   0  0  0  0  0  0  0  0  0  0  0  0
  -22.7737   -6.3215   34.0019 C   0  0  0  0  0  0  0  0  0  0  0  0
  -24.8801   -5.0992   30.7195 C   0  0  0  0  0  0  0  0  0  0  0  0
  -26.2304   -5.3808   30.6756 C   0  0  0  0  0  0  0  0  0  0  0  0
  -26.8765   -6.0523   31.6926 C   0  0  0  0  0  0  0  0  0  0  0  0
  -26.1802   -6.4683   32.8008 C   0  0  0  0  0  0  0  0  0  0  0  0
  -21.7779   -2.2684   31.9760 C   0  0  0  0  0  0  0  0  0  0  0  0
  -22.8325   -1.8400   32.9157 C   0  0  0  0  0  0  0  0  0  0  0  0
  -23.4477   -0.9621   35.0291 C   0  0  0  0  0  0  0  0  0  0  0  0
  -24.8061   -1.0109   34.7424 C   0  0  0  0  0  0  0  0  0  0  0  0
  -25.1538   -1.4934   33.4973 C   0  0  0  0  0  0  0  0  0  0  0  0
  -24.1744   -1.9032   32.5949 C   0  0  0  0  0  0  0  0  0  0  0  0
  1  4  1  1
  1  5  2  0
  1  8  2  0
  1 10  1  0
  3  2  1  0
  6  3  2  0
 12  3  1  0
 17  4  1  0
  9  6  1  0
  6 16  1  0
 18  7  2  0
  7 19  1  0
 10  9  2  0
  9 13  1  0
 10 11  1  0
 11 12  2  0
 13 14  2  0
 14 15  1  0
 16 15  2  0
 17 18  1  0
 18 22  1  0
 19 20  2  0
 20 21  1  0
 21 22  2  0
M  END
$$$$
