
     RDKit          3D

 22 24  0  0  0  0  0  0  0  0999 V2000
  -23.4070   -4.1593   29.6980 S   0  0  1  0  0  6  0  0  0  0  0  0
  -26.4823   -4.8104   35.3132 Br  0  0  0  0  0  0  0  0  0  0  0  0
  -25.5761   -4.6196   33.6499 C   0  0  0  0  0  0  0  0  0  0  0  0
  -23.1519   -5.6943   28.9033 N   0  0  0  0  0  0  0  0  0  0  0  0
  -22.0173   -3.6483   30.0381 O   0  0  0  0  0  0  0  0  0  0  0  0
  -24.3139   -4.0704   33.6097 C   0  0  0  0  0  0  0  0  0  0  0  0
  -20.4895   -6.4594   28.8703 N   0  0  0  0  0  0  0  0  0  0  0  0
  -24.0144   -3.1659   28.7801 O   0  0  0  0  0  0  0  0  0  0  0  0
  -23.6830   -3.9446   32.3951 C   0  0  0  0  0  0  0  0  0  0  0  0
  -24.2548   -4.3454   31.1928 C   0  0  0  0  0  0  0  0  0  0  0  0
  -25.5354   -4.8971   31.2780 C   0  0  0  0  0  0  0  0  0  0  0  0
  -26.1687   -5.0243   32.4892 C   0  0  0  0  0  0  0  0  0  0  0  0
  -22.4221   -3.3972   32.3450 C   0  0  0  0  0  0  0  0  0  0  0  0
  -21.8450   -2.9959   33.5325 C   0  0  0  0  0  0  0  0  0  0  0  0
  -22.4881   -3.1272   34.7458 C   0  0  0  0  0  0  0  0  0  0  0  0
  -23.7470   -3.6723   34.8078 C   0  0  0  0  0  0  0  0  0  0  0  0
  -22.7115   -6.6092   29.9182 C   0  0  0  0  0  0  0  0  0  0  0  0
  -21.2543   -6.8444   29.9102 C   0  0  0  0  0  0  0  0  0  0  0  0
  -19.1625   -6.6494   28.8140 C   0  0  0  0  0  0  0  0  0  0  0  0
  -18.4733   -7.2703   29.8481 C   0  0  0  0  0  0  0  0  0  0  0  0
  -19.2265   -7.6780   30.9300 C   0  0  0  0  0  0  0  0  0  0  0  0
  -20.6033   -7.4658   30.9580 C   0  0  0  0  0  0  0  0  0  0  0  0
  1  4  1  6
  1  5  2  0
  1  8  2  0
  1 10  1  0
  3  2  1  0
  6  3  2  0
 12  3  1  0
 17  4  1  0
  9  6  1  0
  6 16  1  0
 18  7  2  0
  7 19  1  0
 10  9  2  0
  9 13  1  0
 10 11  1  0
 11 12  2  0
 13 14  2  0
 14 15  1  0
 16 15  2  0
 17 18  1  0
 18 22  1  0
 19 20  2  0
 20 21  1  0
 21 22  2  0
M  END
$$$$
