
     RDKit          3D

 22 24  0  0  0  0  0  0  0  0999 V2000
  -22.2600   -5.2342   33.7142 S   0  0  1  0  0  6  0  0  0  0  0  0
  -25.6134    0.1540   34.7798 Br  0  0  0  0  0  0  0  0  0  0  0  0
  -24.6175   -1.4375   34.4646 C   0  0  0  0  0  0  0  0  0  0  0  0
  -22.8327   -6.0633   32.2868 N   0  0  0  0  0  0  0  0  0  0  0  0
  -22.5684   -6.1689   34.8714 O   0  0  0  0  0  0  0  0  0  0  0  0
  -25.2661   -2.6467   34.3472 C   0  0  0  0  0  0  0  0  0  0  0  0
  -21.6301   -5.8745   29.3404 N   0  0  0  0  0  0  0  0  0  0  0  0
  -20.7881   -5.0587   33.6875 O   0  0  0  0  0  0  0  0  0  0  0  0
  -24.5222   -3.7798   34.1198 C   0  0  0  0  0  0  0  0  0  0  0  0
  -23.1370   -3.7722   34.0004 C   0  0  0  0  0  0  0  0  0  0  0  0
  -22.5186   -2.5259   34.1257 C   0  0  0  0  0  0  0  0  0  0  0  0
  -23.2582   -1.3920   34.3529 C   0  0  0  0  0  0  0  0  0  0  0  0
  -25.1612   -4.9920   34.0012 C   0  0  0  0  0  0  0  0  0  0  0  0
  -26.5361   -5.0111   34.1180 C   0  0  0  0  0  0  0  0  0  0  0  0
  -27.2722   -3.8671   34.3463 C   0  0  0  0  0  0  0  0  0  0  0  0
  -26.6448   -2.6514   34.4664 C   0  0  0  0  0  0  0  0  0  0  0  0
  -22.9468   -5.0691   31.2575 C   0  0  0  0  0  0  0  0  0  0  0  0
  -21.7752   -5.0083   30.3617 C   0  0  0  0  0  0  0  0  0  0  0  0
  -20.5855   -5.8617   28.4985 C   0  0  0  0  0  0  0  0  0  0  0  0
  -19.5605   -4.9329   28.6271 C   0  0  0  0  0  0  0  0  0  0  0  0
  -19.6771   -4.0296   29.6637 C   0  0  0  0  0  0  0  0  0  0  0  0
  -20.7748   -4.0693   30.5210 C   0  0  0  0  0  0  0  0  0  0  0  0
  1  4  1  6
  1  5  2  0
  1  8  2  0
  1 10  1  0
  3  2  1  0
  6  3  2  0
 12  3  1  0
 17  4  1  0
  9  6  1  0
  6 16  1  0
 18  7  2  0
  7 19  1  0
 10  9  2  0
  9 13  1  0
 10 11  1  0
 11 12  2  0
 13 14  2  0
 14 15  1  0
 16 15  2  0
 17 18  1  0
 18 22  1  0
 19 20  2  0
 20 21  1  0
 21 22  2  0
M  END
$$$$
