
     RDKit          3D

 22 24  0  0  0  0  0  0  0  0999 V2000
  -22.0498   -5.6049   34.6042 S   0  0  1  0  0  6  0  0  0  0  0  0
  -25.8016   -0.4163   33.9597 Br  0  0  0  0  0  0  0  0  0  0  0  0
  -24.6882   -1.9485   34.1515 C   0  0  0  0  0  0  0  0  0  0  0  0
  -21.7081   -6.3416   33.0571 N   0  0  0  0  0  0  0  0  0  0  0  0
  -22.8713   -6.6322   35.3644 O   0  0  0  0  0  0  0  0  0  0  0  0
  -25.2001   -3.2071   33.9272 C   0  0  0  0  0  0  0  0  0  0  0  0
  -21.3645   -4.3825   29.9471 N   0  0  0  0  0  0  0  0  0  0  0  0
  -20.8104   -5.3847   35.3874 O   0  0  0  0  0  0  0  0  0  0  0  0
  -24.3738   -4.2957   34.0729 C   0  0  0  0  0  0  0  0  0  0  0  0
  -23.0360   -4.1949   34.4380 C   0  0  0  0  0  0  0  0  0  0  0  0
  -22.5568   -2.9009   34.6560 C   0  0  0  0  0  0  0  0  0  0  0  0
  -23.3790   -1.8113   34.5114 C   0  0  0  0  0  0  0  0  0  0  0  0
  -24.8761   -5.5567   33.8510 C   0  0  0  0  0  0  0  0  0  0  0  0
  -26.2029   -5.6684   33.4882 C   0  0  0  0  0  0  0  0  0  0  0  0
  -27.0228   -4.5684   33.3450 C   0  0  0  0  0  0  0  0  0  0  0  0
  -26.5320   -3.3046   33.5640 C   0  0  0  0  0  0  0  0  0  0  0  0
  -21.1742   -5.3033   32.2216 C   0  0  0  0  0  0  0  0  0  0  0  0
  -21.8307   -5.2094   30.9029 C   0  0  0  0  0  0  0  0  0  0  0  0
  -21.9238   -4.2602   28.7336 C   0  0  0  0  0  0  0  0  0  0  0  0
  -23.0466   -4.9949   28.3741 C   0  0  0  0  0  0  0  0  0  0  0  0
  -23.5509   -5.8527   29.3300 C   0  0  0  0  0  0  0  0  0  0  0  0
  -22.9468   -5.9568   30.5813 C   0  0  0  0  0  0  0  0  0  0  0  0
  1  4  1  6
  1  5  2  0
  1  8  2  0
  1 10  1  0
  3  2  1  0
  6  3  2  0
 12  3  1  0
 17  4  1  0
  9  6  1  0
  6 16  1  0
 18  7  2  0
  7 19  1  0
 10  9  2  0
  9 13  1  0
 10 11  1  0
 11 12  2  0
 13 14  2  0
 14 15  1  0
 16 15  2  0
 17 18  1  0
 18 22  1  0
 19 20  2  0
 20 21  1  0
 21 22  2  0
M  END
$$$$
