
     RDKit          3D

 22 24  0  0  0  0  0  0  0  0999 V2000
  -21.6520   -4.8752   29.9632 S   0  0  1  0  0  6  0  0  0  0  0  0
  -27.5026   -6.7300   31.8979 Br  0  0  0  0  0  0  0  0  0  0  0  0
  -25.7712   -6.1854   31.3237 C   0  0  0  0  0  0  0  0  0  0  0  0
  -20.3891   -5.5423   30.9697 N   0  0  0  0  0  0  0  0  0  0  0  0
  -21.5924   -3.3738   30.1880 O   0  0  0  0  0  0  0  0  0  0  0  0
  -25.3177   -4.9157   31.6043 C   0  0  0  0  0  0  0  0  0  0  0  0
  -21.4560   -3.9029   34.0269 N   0  0  0  0  0  0  0  0  0  0  0  0
  -21.3777   -5.1027   28.5241 O   0  0  0  0  0  0  0  0  0  0  0  0
  -24.0636   -4.5492   31.1777 C   0  0  0  0  0  0  0  0  0  0  0  0
  -23.2192   -5.3984   30.4714 C   0  0  0  0  0  0  0  0  0  0  0  0
  -23.7174   -6.6767   30.2077 C   0  0  0  0  0  0  0  0  0  0  0  0
  -24.9694   -7.0463   30.6321 C   0  0  0  0  0  0  0  0  0  0  0  0
  -23.6020   -3.2831   31.4532 C   0  0  0  0  0  0  0  0  0  0  0  0
  -24.4320   -2.4318   32.1538 C   0  0  0  0  0  0  0  0  0  0  0  0
  -25.6890   -2.8109   32.5769 C   0  0  0  0  0  0  0  0  0  0  0  0
  -26.1601   -4.0724   32.3074 C   0  0  0  0  0  0  0  0  0  0  0  0
  -20.1859   -4.6074   32.0400 C   0  0  0  0  0  0  0  0  0  0  0  0
  -20.9986   -4.8945   33.2383 C   0  0  0  0  0  0  0  0  0  0  0  0
  -22.1977   -4.1101   35.1257 C   0  0  0  0  0  0  0  0  0  0  0  0
  -22.5512   -5.3905   35.5323 C   0  0  0  0  0  0  0  0  0  0  0  0
  -22.0991   -6.4309   34.7467 C   0  0  0  0  0  0  0  0  0  0  0  0
  -21.3305   -6.1823   33.6114 C   0  0  0  0  0  0  0  0  0  0  0  0
  1  4  1  1
  1  5  2  0
  1  8  2  0
  1 10  1  0
  3  2  1  0
  6  3  2  0
 12  3  1  0
 17  4  1  0
  9  6  1  0
  6 16  1  0
 18  7  2  0
  7 19  1  0
 10  9  2  0
  9 13  1  0
 10 11  1  0
 11 12  2  0
 13 14  2  0
 14 15  1  0
 16 15  2  0
 17 18  1  0
 18 22  1  0
 19 20  2  0
 20 21  1  0
 21 22  2  0
M  END
$$$$
