
     RDKit          3D

 22 24  0  0  0  0  0  0  0  0999 V2000
  -21.2645   -4.1055   30.5656 S   0  0  1  0  0  6  0  0  0  0  0  0
  -26.4694   -3.2307   34.2477 Br  0  0  0  0  0  0  0  0  0  0  0  0
  -24.9318   -3.4876   33.1549 C   0  0  0  0  0  0  0  0  0  0  0  0
  -20.9834   -5.8010   30.2512 N   0  0  0  0  0  0  0  0  0  0  0  0
  -20.0754   -3.6489   31.3937 O   0  0  0  0  0  0  0  0  0  0  0  0
  -23.7983   -4.0654   33.6818 C   0  0  0  0  0  0  0  0  0  0  0  0
  -24.0595   -6.8970   28.5474 N   0  0  0  0  0  0  0  0  0  0  0  0
  -21.2446   -3.3097   29.3148 O   0  0  0  0  0  0  0  0  0  0  0  0
  -22.7027   -4.2388   32.8701 C   0  0  0  0  0  0  0  0  0  0  0  0
  -22.6759   -3.8592   31.5328 C   0  0  0  0  0  0  0  0  0  0  0  0
  -23.8456   -3.2772   31.0382 C   0  0  0  0  0  0  0  0  0  0  0  0
  -24.9417   -3.1024   31.8457 C   0  0  0  0  0  0  0  0  0  0  0  0
  -21.5660   -4.8150   33.3875 C   0  0  0  0  0  0  0  0  0  0  0  0
  -21.5817   -5.1957   34.7139 C   0  0  0  0  0  0  0  0  0  0  0  0
  -22.6874   -5.0165   35.5190 C   0  0  0  0  0  0  0  0  0  0  0  0
  -23.8277   -4.4424   35.0131 C   0  0  0  0  0  0  0  0  0  0  0  0
  -21.7858   -6.1414   29.1105 C   0  0  0  0  0  0  0  0  0  0  0  0
  -23.0789   -6.7610   29.4609 C   0  0  0  0  0  0  0  0  0  0  0  0
  -25.2514   -7.4523   28.8145 C   0  0  0  0  0  0  0  0  0  0  0  0
  -25.5604   -7.9350   30.0799 C   0  0  0  0  0  0  0  0  0  0  0  0
  -24.5779   -7.8117   31.0408 C   0  0  0  0  0  0  0  0  0  0  0  0
  -23.3501   -7.2300   30.7314 C   0  0  0  0  0  0  0  0  0  0  0  0
  1  4  1  6
  1  5  2  0
  1  8  2  0
  1 10  1  0
  3  2  1  0
  6  3  2  0
 12  3  1  0
 17  4  1  0
  9  6  1  0
  6 16  1  0
 18  7  2  0
  7 19  1  0
 10  9  2  0
  9 13  1  0
 10 11  1  0
 11 12  2  0
 13 14  2  0
 14 15  1  0
 16 15  2  0
 17 18  1  0
 18 22  1  0
 19 20  2  0
 20 21  1  0
 21 22  2  0
M  END
$$$$
