
     RDKit          3D

 22 24  0  0  0  0  0  0  0  0999 V2000
  -21.4236   -3.7923   31.9931 S   0  0  1  0  0  6  0  0  0  0  0  0
  -26.2759   -4.6136   36.1397 Br  0  0  0  0  0  0  0  0  0  0  0  0
  -24.8397   -4.3751   34.9130 C   0  0  0  0  0  0  0  0  0  0  0  0
  -21.5517   -4.8456   30.6049 N   0  0  0  0  0  0  0  0  0  0  0  0
  -20.1472   -4.2148   32.7003 O   0  0  0  0  0  0  0  0  0  0  0  0
  -24.5214   -3.1149   34.4582 C   0  0  0  0  0  0  0  0  0  0  0  0
  -25.1087   -4.7100   29.7759 N   0  0  0  0  0  0  0  0  0  0  0  0
  -21.2392   -2.3781   31.5876 O   0  0  0  0  0  0  0  0  0  0  0  0
  -23.4798   -2.9718   33.5730 C   0  0  0  0  0  0  0  0  0  0  0  0
  -22.7221   -4.0404   33.1069 C   0  0  0  0  0  0  0  0  0  0  0  0
  -23.0777   -5.3010   33.5928 C   0  0  0  0  0  0  0  0  0  0  0  0
  -24.1174   -5.4477   34.4769 C   0  0  0  0  0  0  0  0  0  0  0  0
  -23.1545   -1.7170   33.1132 C   0  0  0  0  0  0  0  0  0  0  0  0
  -23.9001   -0.6491   33.5693 C   0  0  0  0  0  0  0  0  0  0  0  0
  -24.9436   -0.8049   34.4579 C   0  0  0  0  0  0  0  0  0  0  0  0
  -25.2772   -2.0530   34.9236 C   0  0  0  0  0  0  0  0  0  0  0  0
  -22.6712   -4.3747   29.8393 C   0  0  0  0  0  0  0  0  0  0  0  0
  -23.8763   -5.2162   29.9753 C   0  0  0  0  0  0  0  0  0  0  0  0
  -26.2346   -5.4313   29.8868 C   0  0  0  0  0  0  0  0  0  0  0  0
  -26.2035   -6.7790   30.2224 C   0  0  0  0  0  0  0  0  0  0  0  0
  -24.9564   -7.3304   30.4339 C   0  0  0  0  0  0  0  0  0  0  0  0
  -23.8059   -6.5541   30.3109 C   0  0  0  0  0  0  0  0  0  0  0  0
  1  4  1  6
  1  5  2  0
  1  8  2  0
  1 10  1  0
  3  2  1  0
  6  3  2  0
 12  3  1  0
 17  4  1  0
  9  6  1  0
  6 16  1  0
 18  7  2  0
  7 19  1  0
 10  9  2  0
  9 13  1  0
 10 11  1  0
 11 12  2  0
 13 14  2  0
 14 15  1  0
 16 15  2  0
 17 18  1  0
 18 22  1  0
 19 20  2  0
 20 21  1  0
 21 22  2  0
M  END
$$$$
