
     RDKit          3D

 31 35  0  0  0  0  0  0  0  0999 V2000
  -13.3016   -8.9581   27.8675 C   0  0  0  0  0  0  0  0  0  0  0  0
  -15.5329  -11.4613   26.5128 C   0  0  0  0  0  0  0  0  0  0  0  0
  -14.2258  -12.5421   24.7126 C   0  0  0  0  0  0  0  0  0  0  0  0
  -16.4317  -12.7453   23.5259 C   0  0  0  0  0  0  0  0  0  0  0  0
  -17.8192  -11.1289   20.4023 C   0  0  0  0  0  0  0  0  0  0  0  0
  -18.7620  -12.2099   18.4649 C   0  0  0  0  0  0  0  0  0  0  0  0
  -16.6509  -11.1026   18.3768 C   0  0  0  0  0  0  0  0  0  0  0  0
  -14.8128  -11.2888   22.6193 C   0  0  0  0  0  0  0  0  0  0  0  0
   -6.8423   -7.5455   26.2811 N   0  0  0  0  0  0  0  0  0  0  0  0
   -8.0128   -8.2739   25.9370 C   0  0  0  0  0  0  0  0  0  0  0  0
   -8.1718   -9.0730   24.8487 N   0  0  0  0  0  0  0  0  0  0  0  0
   -9.3987   -9.5514   24.9120 N   0  0  0  0  0  0  0  0  0  0  0  0
  -10.0465   -9.0954   25.9995 C   0  0  0  0  0  0  0  0  0  0  0  0
  -11.4249   -9.3899   26.4325 C   0  0  0  0  0  0  0  0  0  0  0  0
  -12.1795  -10.3753   25.8324 C   0  0  0  0  0  0  0  0  0  0  0  0
  -13.4750  -10.6851   26.2054 C   0  0  0  0  0  0  0  0  0  0  0  0
  -14.0328   -9.9457   27.2527 C   0  0  0  0  0  0  0  0  0  0  0  0
  -12.0128   -8.6824   27.4632 C   0  0  0  0  0  0  0  0  0  0  0  0
  -15.3105  -10.4516   27.4192 C   0  0  0  0  0  0  0  0  0  0  0  0
  -14.3948  -11.5745   25.7920 N   0  0  0  0  0  0  0  0  0  0  0  0
  -15.1775  -12.1851   23.5970 C   0  0  0  0  0  0  0  0  0  0  0  0
  -17.3137  -12.4174   22.4930 C   0  0  0  0  0  0  0  0  0  0  0  0
  -16.9238  -11.5159   21.5250 C   0  0  0  0  0  0  0  0  0  0  0  0
  -17.5608  -11.8701   19.1958 N   0  0  1  0  0  4  0  0  0  0  0  0
  -18.3379  -12.7657   17.1220 C   0  0  0  0  0  0  0  0  0  0  0  0
  -16.9739  -13.0231   17.0582 O   0  0  0  0  0  0  0  0  0  0  0  0
  -16.2391  -11.8538   17.1303 C   0  0  0  0  0  0  0  0  0  0  0  0
  -15.6698  -10.9576   21.5988 C   0  0  0  0  0  0  0  0  0  0  0  0
   -9.1607   -8.2680   26.6708 C   0  0  0  0  0  0  0  0  0  0  0  0
   -9.4797   -7.5799   27.8961 C   0  0  0  0  0  0  0  0  0  0  0  0
   -9.7567   -7.0180   28.8817 N   0  0  0  0  0  0  0  0  0  0  0  0
 17  1  2  0
  1 18  1  0
  2 19  2  0
 20  2  1  0
  3 20  1  0
 21  3  1  0
  4 21  2  0
 22  4  1  0
 23  5  1  0
 24  5  1  1
 24  6  1  0
  6 25  1  0
 24  7  1  0
  7 27  1  0
 21  8  1  0
  8 28  2  0
 10  9  1  0
 10 11  1  0
 29 10  2  0
 12 11  1  0
 13 12  2  0
 14 13  1  0
 13 29  1  0
 15 14  1  0
 14 18  2  0
 16 15  2  0
 16 17  1  0
 20 16  1  0
 17 19  1  0
 22 23  2  0
 23 28  1  0
 25 26  1  0
 26 27  1  0
 29 30  1  0
 30 31  3  0
M  CHG  1  24   1
M  END
$$$$
