
     RDKit          3D

 31 35  0  0  0  0  0  0  0  0999 V2000
  -15.1617  -10.8254   25.8103 C   0  0  0  0  0  0  0  0  0  0  0  0
  -14.2054   -9.9070   29.1751 C   0  0  0  0  0  0  0  0  0  0  0  0
  -11.8610   -9.1478   28.9637 C   0  0  0  0  0  0  0  0  0  0  0  0
  -10.9942   -6.9014   29.6832 C   0  0  0  0  0  0  0  0  0  0  0  0
  -12.3319   -3.3886   29.2763 C   0  0  0  0  0  0  0  0  0  0  0  0
  -11.6963   -1.4424   28.0037 C   0  0  0  0  0  0  0  0  0  0  0  0
  -10.2065   -2.4572   29.5662 C   0  0  0  0  0  0  0  0  0  0  0  0
  -13.0390   -6.9790   28.5097 C   0  0  0  0  0  0  0  0  0  0  0  0
  -11.6920   -9.8580   20.0088 N   0  0  0  0  0  0  0  0  0  0  0  0
  -11.6371  -10.0325   21.4179 C   0  0  0  0  0  0  0  0  0  0  0  0
  -10.5151  -10.2220   22.1616 N   0  0  0  0  0  0  0  0  0  0  0  0
  -10.9113  -10.3374   23.4137 N   0  0  0  0  0  0  0  0  0  0  0  0
  -12.2486  -10.2305   23.5158 C   0  0  0  0  0  0  0  0  0  0  0  0
  -13.0810  -10.3025   24.7308 C   0  0  0  0  0  0  0  0  0  0  0  0
  -12.5988   -9.9214   25.9648 C   0  0  0  0  0  0  0  0  0  0  0  0
  -13.3431   -9.9723   27.1296 C   0  0  0  0  0  0  0  0  0  0  0  0
  -14.6570  -10.4394   27.0287 C   0  0  0  0  0  0  0  0  0  0  0  0
  -14.3839  -10.7583   24.6740 C   0  0  0  0  0  0  0  0  0  0  0  0
  -15.1651  -10.3866   28.3152 C   0  0  0  0  0  0  0  0  0  0  0  0
  -13.1115   -9.6663   28.4183 N   0  0  0  0  0  0  0  0  0  0  0  0
  -11.9655   -7.6449   29.0543 C   0  0  0  0  0  0  0  0  0  0  0  0
  -11.0898   -5.5100   29.7694 C   0  0  0  0  0  0  0  0  0  0  0  0
  -12.1761   -4.8664   29.2152 C   0  0  0  0  0  0  0  0  0  0  0  0
  -11.2677   -2.6830   28.6119 N   0  0  1  0  0  4  0  0  0  0  0  0
  -10.4549   -0.6996   27.5574 C   0  0  0  0  0  0  0  0  0  0  0  0
   -9.3113   -1.4862   27.6201 O   0  0  0  0  0  0  0  0  0  0  0  0
   -8.9974   -1.8113   28.9272 C   0  0  0  0  0  0  0  0  0  0  0  0
  -13.1453   -5.6122   28.5873 C   0  0  0  0  0  0  0  0  0  0  0  0
  -12.7299  -10.0330   22.2315 C   0  0  0  0  0  0  0  0  0  0  0  0
  -14.1265   -9.8705   21.9161 C   0  0  0  0  0  0  0  0  0  0  0  0
  -15.2624   -9.7563   21.6701 N   0  0  0  0  0  0  0  0  0  0  0  0
 17  1  2  0
  1 18  1  0
  2 19  2  0
 20  2  1  0
  3 20  1  0
 21  3  1  0
  4 21  2  0
 22  4  1  0
 23  5  1  0
 24  5  1  1
 24  6  1  0
  6 25  1  0
 24  7  1  0
  7 27  1  0
 21  8  1  0
  8 28  2  0
 10  9  1  0
 10 11  1  0
 29 10  2  0
 12 11  1  0
 13 12  2  0
 14 13  1  0
 13 29  1  0
 15 14  1  0
 14 18  2  0
 16 15  2  0
 16 17  1  0
 20 16  1  0
 17 19  1  0
 22 23  2  0
 23 28  1  0
 25 26  1  0
 26 27  1  0
 29 30  1  0
 30 31  3  0
M  CHG  1  24   1
M  END
$$$$
