
     RDKit          3D

 31 35  0  0  0  0  0  0  0  0999 V2000
  -14.4396  -11.0242   27.4222 C   0  0  0  0  0  0  0  0  0  0  0  0
  -12.9495   -9.4174   30.2992 C   0  0  0  0  0  0  0  0  0  0  0  0
  -11.0199   -8.1733   29.3793 C   0  0  0  0  0  0  0  0  0  0  0  0
  -10.5939   -5.7411   28.9120 C   0  0  0  0  0  0  0  0  0  0  0  0
  -12.8443   -2.7029   28.8941 C   0  0  0  0  0  0  0  0  0  0  0  0
  -11.8448   -2.0742   26.7925 C   0  0  0  0  0  0  0  0  0  0  0  0
  -12.3174   -0.4615   28.4857 C   0  0  0  0  0  0  0  0  0  0  0  0
  -12.7922   -6.3984   29.4597 C   0  0  0  0  0  0  0  0  0  0  0  0
  -12.9135   -9.6477   20.8533 N   0  0  0  0  0  0  0  0  0  0  0  0
  -12.4653   -9.8708   22.1831 C   0  0  0  0  0  0  0  0  0  0  0  0
  -11.1869  -10.1258   22.5687 N   0  0  0  0  0  0  0  0  0  0  0  0
  -11.2127  -10.2682   23.8790 N   0  0  0  0  0  0  0  0  0  0  0  0
  -12.4586  -10.1161   24.3636 C   0  0  0  0  0  0  0  0  0  0  0  0
  -12.9105  -10.1980   25.7647 C   0  0  0  0  0  0  0  0  0  0  0  0
  -12.2533   -9.5355   26.7795 C   0  0  0  0  0  0  0  0  0  0  0  0
  -12.6414   -9.5842   28.1062 C   0  0  0  0  0  0  0  0  0  0  0  0
  -13.7667  -10.3541   28.4153 C   0  0  0  0  0  0  0  0  0  0  0  0
  -14.0176  -10.9479   26.1120 C   0  0  0  0  0  0  0  0  0  0  0  0
  -13.9317  -10.2300   29.7840 C   0  0  0  0  0  0  0  0  0  0  0  0
  -12.1839   -9.0440   29.2495 N   0  0  0  0  0  0  0  0  0  0  0  0
  -11.4770   -6.7410   29.2468 C   0  0  0  0  0  0  0  0  0  0  0  0
  -11.0148   -4.4142   28.7902 C   0  0  0  0  0  0  0  0  0  0  0  0
  -12.3388   -4.0969   29.0089 C   0  0  0  0  0  0  0  0  0  0  0  0
  -11.9266   -1.8260   28.2153 N   0  0  1  0  0  4  0  0  0  0  0  0
  -11.0433   -0.9466   26.1775 C   0  0  0  0  0  0  0  0  0  0  0  0
  -10.4186   -0.1538   27.1324 O   0  0  0  0  0  0  0  0  0  0  0  0
  -11.3438    0.5344   27.8958 C   0  0  0  0  0  0  0  0  0  0  0  0
  -13.2190   -5.0985   29.3433 C   0  0  0  0  0  0  0  0  0  0  0  0
  -13.2782   -9.8586   23.2764 C   0  0  0  0  0  0  0  0  0  0  0  0
  -14.6980   -9.6348   23.3793 C   0  0  0  0  0  0  0  0  0  0  0  0
  -15.8472   -9.4549   23.4830 N   0  0  0  0  0  0  0  0  0  0  0  0
 17  1  2  0
  1 18  1  0
  2 19  2  0
 20  2  1  0
  3 20  1  0
 21  3  1  0
  4 21  2  0
 22  4  1  0
 23  5  1  0
 24  5  1  6
 24  6  1  0
  6 25  1  0
 24  7  1  0
  7 27  1  0
 21  8  1  0
  8 28  2  0
 10  9  1  0
 10 11  1  0
 29 10  2  0
 12 11  1  0
 13 12  2  0
 14 13  1  0
 13 29  1  0
 15 14  1  0
 14 18  2  0
 16 15  2  0
 16 17  1  0
 20 16  1  0
 17 19  1  0
 22 23  2  0
 23 28  1  0
 25 26  1  0
 26 27  1  0
 29 30  1  0
 30 31  3  0
M  CHG  1  24   1
M  END
$$$$
