
     RDKit          3D

 31 35  0  0  0  0  0  0  0  0999 V2000
  -21.8691  -19.8729   13.9078 C   0  0  0  0  0  0  0  0  0  0  0  0
  -24.2526  -21.7888   11.9770 C   0  0  0  0  0  0  0  0  0  0  0  0
  -24.1580  -20.7907    9.7160 C   0  0  0  0  0  0  0  0  0  0  0  0
  -23.5108  -23.2160    9.5955 C   0  0  0  0  0  0  0  0  0  0  0  0
  -22.0715  -25.3493    6.8256 C   0  0  0  0  0  0  0  0  0  0  0  0
  -20.2180  -26.8879    6.9166 C   0  0  0  0  0  0  0  0  0  0  0  0
  -19.9929  -24.7124    5.9641 C   0  0  0  0  0  0  0  0  0  0  0  0
  -23.2155  -21.8905    7.6668 C   0  0  0  0  0  0  0  0  0  0  0  0
  -17.3813  -15.2438   11.6314 N   0  0  0  0  0  0  0  0  0  0  0  0
  -18.6414  -15.8766   11.4564 C   0  0  0  0  0  0  0  0  0  0  0  0
  -19.6183  -15.4974   10.5905 N   0  0  0  0  0  0  0  0  0  0  0  0
  -20.6112  -16.3499   10.7499 N   0  0  0  0  0  0  0  0  0  0  0  0
  -20.3199  -17.2710   11.6865 C   0  0  0  0  0  0  0  0  0  0  0  0
  -21.1555  -18.3906   12.1581 C   0  0  0  0  0  0  0  0  0  0  0  0
  -22.0329  -19.0450   11.3199 C   0  0  0  0  0  0  0  0  0  0  0  0
  -22.8353  -20.0987   11.7190 C   0  0  0  0  0  0  0  0  0  0  0  0
  -22.7360  -20.5086   13.0520 C   0  0  0  0  0  0  0  0  0  0  0  0
  -21.0875  -18.8261   13.4674 C   0  0  0  0  0  0  0  0  0  0  0  0
  -23.6281  -21.5592   13.1802 C   0  0  0  0  0  0  0  0  0  0  0  0
  -23.7451  -20.8816   11.1128 N   0  0  0  0  0  0  0  0  0  0  0  0
  -23.6175  -21.9915    8.9785 C   0  0  0  0  0  0  0  0  0  0  0  0
  -23.0093  -24.3286    8.9149 C   0  0  0  0  0  0  0  0  0  0  0  0
  -22.6130  -24.2010    7.6003 C   0  0  0  0  0  0  0  0  0  0  0  0
  -20.6488  -25.5082    6.9761 N   0  0  1  0  0  4  0  0  0  0  0  0
  -18.7056  -26.8917    6.8473 C   0  0  0  0  0  0  0  0  0  0  0  0
  -18.1570  -25.6411    7.1036 O   0  0  0  0  0  0  0  0  0  0  0  0
  -18.4878  -24.7356    6.1120 C   0  0  0  0  0  0  0  0  0  0  0  0
  -22.7209  -22.9758    6.9863 C   0  0  0  0  0  0  0  0  0  0  0  0
  -19.0484  -16.9756   12.1511 C   0  0  0  0  0  0  0  0  0  0  0  0
  -18.3713  -17.7373   13.1699 C   0  0  0  0  0  0  0  0  0  0  0  0
  -17.8156  -18.3373   14.0036 N   0  0  0  0  0  0  0  0  0  0  0  0
 17  1  2  0
  1 18  1  0
  2 19  2  0
 20  2  1  0
  3 20  1  0
 21  3  1  0
  4 21  2  0
 22  4  1  0
 23  5  1  0
 24  5  1  6
 24  6  1  0
  6 25  1  0
 24  7  1  0
  7 27  1  0
 21  8  1  0
  8 28  2  0
 10  9  1  0
 10 11  1  0
 29 10  2  0
 12 11  1  0
 13 12  2  0
 14 13  1  0
 13 29  1  0
 15 14  1  0
 14 18  2  0
 16 15  2  0
 16 17  1  0
 20 16  1  0
 17 19  1  0
 22 23  2  0
 23 28  1  0
 25 26  1  0
 26 27  1  0
 29 30  1  0
 30 31  3  0
M  CHG  1  24   1
M  END
$$$$
