
     RDKit          3D

 31 35  0  0  0  0  0  0  0  0999 V2000
  -23.9590  -18.5427   11.4052 C   0  0  0  0  0  0  0  0  0  0  0  0
  -24.8036  -21.9740   10.6354 C   0  0  0  0  0  0  0  0  0  0  0  0
  -22.7578  -23.2503   11.1858 C   0  0  0  0  0  0  0  0  0  0  0  0
  -23.4930  -24.3506    9.0494 C   0  0  0  0  0  0  0  0  0  0  0  0
  -21.6704  -25.2074    5.8496 C   0  0  0  0  0  0  0  0  0  0  0  0
  -21.4369  -27.1651    4.4626 C   0  0  0  0  0  0  0  0  0  0  0  0
  -20.1673  -26.8905    6.4635 C   0  0  0  0  0  0  0  0  0  0  0  0
  -21.2434  -23.6639    9.2281 C   0  0  0  0  0  0  0  0  0  0  0  0
  -17.8110  -16.0165   13.0251 N   0  0  0  0  0  0  0  0  0  0  0  0
  -18.7007  -17.1236   13.0658 C   0  0  0  0  0  0  0  0  0  0  0  0
  -18.5325  -18.2643   13.7859 N   0  0  0  0  0  0  0  0  0  0  0  0
  -19.5828  -19.0216   13.5376 N   0  0  0  0  0  0  0  0  0  0  0  0
  -20.4298  -18.4191   12.6834 C   0  0  0  0  0  0  0  0  0  0  0  0
  -21.7103  -18.9260   12.1564 C   0  0  0  0  0  0  0  0  0  0  0  0
  -21.9110  -20.2658   11.9012 C   0  0  0  0  0  0  0  0  0  0  0  0
  -23.0941  -20.7848   11.4071 C   0  0  0  0  0  0  0  0  0  0  0  0
  -24.1335  -19.8832   11.1592 C   0  0  0  0  0  0  0  0  0  0  0  0
  -22.7621  -18.0683   11.8979 C   0  0  0  0  0  0  0  0  0  0  0  0
  -25.1804  -20.6525   10.6810 C   0  0  0  0  0  0  0  0  0  0  0  0
  -23.5291  -22.0155   11.0842 N   0  0  0  0  0  0  0  0  0  0  0  0
  -22.4940  -23.7655    9.7920 C   0  0  0  0  0  0  0  0  0  0  0  0
  -23.2504  -24.8296    7.7594 C   0  0  0  0  0  0  0  0  0  0  0  0
  -21.9878  -24.7157    7.2169 C   0  0  0  0  0  0  0  0  0  0  0  0
  -21.4256  -26.6251    5.8046 N   0  0  1  0  0  4  0  0  0  0  0  0
  -20.9367  -28.5920    4.5400 C   0  0  0  0  0  0  0  0  0  0  0  0
  -20.8479  -29.0557    5.8468 O   0  0  0  0  0  0  0  0  0  0  0  0
  -19.8777  -28.3720    6.5566 C   0  0  0  0  0  0  0  0  0  0  0  0
  -20.9914  -24.1305    7.9615 C   0  0  0  0  0  0  0  0  0  0  0  0
  -19.8705  -17.1906   12.3707 C   0  0  0  0  0  0  0  0  0  0  0  0
  -20.4792  -16.2380   11.4770 C   0  0  0  0  0  0  0  0  0  0  0  0
  -20.9878  -15.4790   10.7497 N   0  0  0  0  0  0  0  0  0  0  0  0
 17  1  2  0
  1 18  1  0
  2 19  2  0
 20  2  1  0
  3 20  1  0
 21  3  1  0
  4 21  2  0
 22  4  1  0
 23  5  1  0
 24  5  1  6
 24  6  1  0
  6 25  1  0
 24  7  1  0
  7 27  1  0
 21  8  1  0
  8 28  2  0
 10  9  1  0
 10 11  1  0
 29 10  2  0
 12 11  1  0
 13 12  2  0
 14 13  1  0
 13 29  1  0
 15 14  1  0
 14 18  2  0
 16 15  2  0
 16 17  1  0
 20 16  1  0
 17 19  1  0
 22 23  2  0
 23 28  1  0
 25 26  1  0
 26 27  1  0
 29 30  1  0
 30 31  3  0
M  CHG  1  24   1
M  END
$$$$
