
     RDKit          3D

 31 35  0  0  0  0  0  0  0  0999 V2000
  -14.8090  -10.1755   27.0523 C   0  0  0  0  0  0  0  0  0  0  0  0
  -13.2697   -9.0158   30.1126 C   0  0  0  0  0  0  0  0  0  0  0  0
  -10.9504   -8.4554   29.4617 C   0  0  0  0  0  0  0  0  0  0  0  0
  -12.1737   -6.2670   29.6349 C   0  0  0  0  0  0  0  0  0  0  0  0
  -10.9939   -2.6795   29.8154 C   0  0  0  0  0  0  0  0  0  0  0  0
  -10.8410   -2.4307   27.4225 C   0  0  0  0  0  0  0  0  0  0  0  0
  -10.3306   -0.6310   28.9029 C   0  0  0  0  0  0  0  0  0  0  0  0
   -9.8164   -6.2191   29.5635 C   0  0  0  0  0  0  0  0  0  0  0  0
  -12.2253   -9.8150   20.7199 N   0  0  0  0  0  0  0  0  0  0  0  0
  -11.9797   -9.9727   22.1106 C   0  0  0  0  0  0  0  0  0  0  0  0
  -10.8070  -10.3553   22.6818 N   0  0  0  0  0  0  0  0  0  0  0  0
  -11.0135  -10.3735   23.9838 N   0  0  0  0  0  0  0  0  0  0  0  0
  -12.2757  -10.0175   24.2843 C   0  0  0  0  0  0  0  0  0  0  0  0
  -12.9034   -9.9124   25.6143 C   0  0  0  0  0  0  0  0  0  0  0  0
  -12.2068   -9.4528   26.7117 C   0  0  0  0  0  0  0  0  0  0  0  0
  -12.7547   -9.3380   27.9765 C   0  0  0  0  0  0  0  0  0  0  0  0
  -14.0925   -9.7142   28.1302 C   0  0  0  0  0  0  0  0  0  0  0  0
  -14.2226  -10.2739   25.8085 C   0  0  0  0  0  0  0  0  0  0  0  0
  -14.3820   -9.5024   29.4672 C   0  0  0  0  0  0  0  0  0  0  0  0
  -12.3005   -8.9293   29.1743 N   0  0  0  0  0  0  0  0  0  0  0  0
  -10.9821   -6.9494   29.5559 C   0  0  0  0  0  0  0  0  0  0  0  0
  -12.2053   -4.8727   29.7207 C   0  0  0  0  0  0  0  0  0  0  0  0
  -11.0225   -4.1638   29.7265 C   0  0  0  0  0  0  0  0  0  0  0  0
  -10.3021   -2.0633   28.7138 N   0  0  1  0  0  4  0  0  0  0  0  0
  -10.1888   -1.5413   26.3854 C   0  0  0  0  0  0  0  0  0  0  0  0
   -9.1158   -0.8226   26.8981 O   0  0  0  0  0  0  0  0  0  0  0  0
   -9.5337    0.0966   27.8431 C   0  0  0  0  0  0  0  0  0  0  0  0
   -9.8331   -4.8486   29.6473 C   0  0  0  0  0  0  0  0  0  0  0  0
  -12.9110   -9.7557   23.0810 C   0  0  0  0  0  0  0  0  0  0  0  0
  -14.2871   -9.3411   22.9759 C   0  0  0  0  0  0  0  0  0  0  0  0
  -15.4075   -9.0198   22.9038 N   0  0  0  0  0  0  0  0  0  0  0  0
 17  1  2  0
  1 18  1  0
  2 19  2  0
 20  2  1  0
  3 20  1  0
 21  3  1  0
  4 21  2  0
 22  4  1  0
 23  5  1  0
 24  5  1  1
 24  6  1  0
  6 25  1  0
 24  7  1  0
  7 27  1  0
 21  8  1  0
  8 28  2  0
 10  9  1  0
 10 11  1  0
 29 10  2  0
 12 11  1  0
 13 12  2  0
 14 13  1  0
 13 29  1  0
 15 14  1  0
 14 18  2  0
 16 15  2  0
 16 17  1  0
 20 16  1  0
 17 19  1  0
 22 23  2  0
 23 28  1  0
 25 26  1  0
 26 27  1  0
 29 30  1  0
 30 31  3  0
M  CHG  1  24   1
M  END
$$$$
