
     RDKit          3D

 31 35  0  0  0  0  0  0  0  0999 V2000
  -23.2072  -18.4088   10.7894 C   0  0  0  0  0  0  0  0  0  0  0  0
  -24.1938  -21.8796   10.5438 C   0  0  0  0  0  0  0  0  0  0  0  0
  -22.3299  -23.1252   11.5886 C   0  0  0  0  0  0  0  0  0  0  0  0
  -23.5457  -24.6184    9.9738 C   0  0  0  0  0  0  0  0  0  0  0  0
  -22.3597  -26.8880    7.1922 C   0  0  0  0  0  0  0  0  0  0  0  0
  -22.7298  -28.8559    8.5345 C   0  0  0  0  0  0  0  0  0  0  0  0
  -21.7117  -28.9833    6.3809 C   0  0  0  0  0  0  0  0  0  0  0  0
  -21.1930  -24.5159    9.8363 C   0  0  0  0  0  0  0  0  0  0  0  0
  -17.2321  -15.8308   12.8529 N   0  0  0  0  0  0  0  0  0  0  0  0
  -18.1485  -16.9151   12.9133 C   0  0  0  0  0  0  0  0  0  0  0  0
  -18.0761  -17.9835   13.7506 N   0  0  0  0  0  0  0  0  0  0  0  0
  -19.1167  -18.7450   13.4764 N   0  0  0  0  0  0  0  0  0  0  0  0
  -19.8656  -18.2147   12.4924 C   0  0  0  0  0  0  0  0  0  0  0  0
  -21.1033  -18.7502   11.8963 C   0  0  0  0  0  0  0  0  0  0  0  0
  -21.3665  -20.1031   11.8621 C   0  0  0  0  0  0  0  0  0  0  0  0
  -22.5129  -20.6490   11.3135 C   0  0  0  0  0  0  0  0  0  0  0  0
  -23.4457  -19.7618   10.7680 C   0  0  0  0  0  0  0  0  0  0  0  0
  -22.0502  -17.9075   11.3467 C   0  0  0  0  0  0  0  0  0  0  0  0
  -24.4772  -20.5567   10.2986 C   0  0  0  0  0  0  0  0  0  0  0  0
  -22.9916  -21.8964   11.1618 N   0  0  0  0  0  0  0  0  0  0  0  0
  -22.3582  -24.1065   10.4423 C   0  0  0  0  0  0  0  0  0  0  0  0
  -23.5739  -25.5282    8.9137 C   0  0  0  0  0  0  0  0  0  0  0  0
  -22.3918  -25.9228    8.3232 C   0  0  0  0  0  0  0  0  0  0  0  0
  -21.8762  -28.1883    7.5761 N   0  0  1  0  0  4  0  0  0  0  0  0
  -22.2415  -30.2830    8.6649 C   0  0  0  0  0  0  0  0  0  0  0  0
  -21.0112  -30.4838    8.0510 O   0  0  0  0  0  0  0  0  0  0  0  0
  -21.1054  -30.3364    6.6792 C   0  0  0  0  0  0  0  0  0  0  0  0
  -21.2065  -25.4093    8.7936 C   0  0  0  0  0  0  0  0  0  0  0  0
  -19.2498  -17.0308   12.1196 C   0  0  0  0  0  0  0  0  0  0  0  0
  -19.7490  -16.1596   11.0860 C   0  0  0  0  0  0  0  0  0  0  0  0
  -20.1686  -15.4477   10.2608 N   0  0  0  0  0  0  0  0  0  0  0  0
 17  1  2  0
  1 18  1  0
  2 19  2  0
 20  2  1  0
  3 20  1  0
 21  3  1  0
  4 21  2  0
 22  4  1  0
 23  5  1  0
 24  5  1  6
 24  6  1  0
  6 25  1  0
 24  7  1  0
  7 27  1  0
 21  8  1  0
  8 28  2  0
 10  9  1  0
 10 11  1  0
 29 10  2  0
 12 11  1  0
 13 12  2  0
 14 13  1  0
 13 29  1  0
 15 14  1  0
 14 18  2  0
 16 15  2  0
 16 17  1  0
 20 16  1  0
 17 19  1  0
 22 23  2  0
 23 28  1  0
 25 26  1  0
 26 27  1  0
 29 30  1  0
 30 31  3  0
M  CHG  1  24   1
M  END
$$$$
