
     RDKit          3D

 31 35  0  0  0  0  0  0  0  0999 V2000
  -23.1511  -24.5176    9.3745 C   0  0  0  0  0  0  0  0  0  0  0  0
  -25.3168  -22.1241   11.0057 C   0  0  0  0  0  0  0  0  0  0  0  0
  -24.4452  -19.9210   10.2960 C   0  0  0  0  0  0  0  0  0  0  0  0
  -22.9257  -18.1276   11.1850 C   0  0  0  0  0  0  0  0  0  0  0  0
  -20.3459  -18.0932   13.9488 C   0  0  0  0  0  0  0  0  0  0  0  0
  -21.6891  -18.5043   15.9079 C   0  0  0  0  0  0  0  0  0  0  0  0
  -19.7814  -17.0736   15.9762 C   0  0  0  0  0  0  0  0  0  0  0  0
  -22.8275  -20.2624   12.1838 C   0  0  0  0  0  0  0  0  0  0  0  0
  -18.8203  -22.7328    4.2543 N   0  0  0  0  0  0  0  0  0  0  0  0
  -19.3015  -22.5646    5.5806 C   0  0  0  0  0  0  0  0  0  0  0  0
  -18.6542  -21.9356    6.5972 N   0  0  0  0  0  0  0  0  0  0  0  0
  -19.4486  -22.0061    7.6469 N   0  0  0  0  0  0  0  0  0  0  0  0
  -20.5895  -22.6568    7.3547 C   0  0  0  0  0  0  0  0  0  0  0  0
  -21.7297  -22.9463    8.2436 C   0  0  0  0  0  0  0  0  0  0  0  0
  -22.4835  -21.9400    8.8089 C   0  0  0  0  0  0  0  0  0  0  0  0
  -23.5601  -22.1652    9.6476 C   0  0  0  0  0  0  0  0  0  0  0  0
  -23.8866  -23.4960    9.9254 C   0  0  0  0  0  0  0  0  0  0  0  0
  -22.0850  -24.2474    8.5433 C   0  0  0  0  0  0  0  0  0  0  0  0
  -24.9811  -23.4366   10.7709 C   0  0  0  0  0  0  0  0  0  0  0  0
  -24.4308  -21.3803   10.3063 N   0  0  0  0  0  0  0  0  0  0  0  0
  -23.3778  -19.4254   11.2409 C   0  0  0  0  0  0  0  0  0  0  0  0
  -21.9364  -17.6673   12.0579 C   0  0  0  0  0  0  0  0  0  0  0  0
  -21.4009  -18.5264   12.9942 C   0  0  0  0  0  0  0  0  0  0  0  0
  -20.8809  -17.5563   15.1725 N   0  0  1  0  0  4  0  0  0  0  0  0
  -21.9829  -17.8990   17.2641 C   0  0  0  0  0  0  0  0  0  0  0  0
  -21.6287  -16.5574   17.3373 O   0  0  0  0  0  0  0  0  0  0  0  0
  -20.2588  -16.3945   17.2405 C   0  0  0  0  0  0  0  0  0  0  0  0
  -21.8549  -19.8229   13.0477 C   0  0  0  0  0  0  0  0  0  0  0  0
  -20.5065  -23.0232    6.0210 C   0  0  0  0  0  0  0  0  0  0  0  0
  -21.5403  -23.7449    5.3232 C   0  0  0  0  0  0  0  0  0  0  0  0
  -22.3749  -24.3181    4.7414 N   0  0  0  0  0  0  0  0  0  0  0  0
 17  1  2  0
  1 18  1  0
  2 19  2  0
 20  2  1  0
  3 20  1  0
 21  3  1  0
  4 21  2  0
 22  4  1  0
 23  5  1  0
 24  5  1  6
 24  6  1  0
  6 25  1  0
 24  7  1  0
  7 27  1  0
 21  8  1  0
  8 28  2  0
 10  9  1  0
 10 11  1  0
 29 10  2  0
 12 11  1  0
 13 12  2  0
 14 13  1  0
 13 29  1  0
 15 14  1  0
 14 18  2  0
 16 15  2  0
 16 17  1  0
 20 16  1  0
 17 19  1  0
 22 23  2  0
 23 28  1  0
 25 26  1  0
 26 27  1  0
 29 30  1  0
 30 31  3  0
M  CHG  1  24   1
M  END
$$$$
