
     RDKit          3D

 31 35  0  0  0  0  0  0  0  0999 V2000
  -21.8291  -19.8036   13.9794 C   0  0  0  0  0  0  0  0  0  0  0  0
  -24.5571  -21.2502   12.0966 C   0  0  0  0  0  0  0  0  0  0  0  0
  -24.3418  -20.2599    9.8405 C   0  0  0  0  0  0  0  0  0  0  0  0
  -24.4015  -22.7046    9.2612 C   0  0  0  0  0  0  0  0  0  0  0  0
  -22.5017  -24.7881    6.7424 C   0  0  0  0  0  0  0  0  0  0  0  0
  -21.3457  -25.9412    8.5159 C   0  0  0  0  0  0  0  0  0  0  0  0
  -20.7383  -26.2351    6.2277 C   0  0  0  0  0  0  0  0  0  0  0  0
  -22.9091  -21.3176    8.0724 C   0  0  0  0  0  0  0  0  0  0  0  0
  -16.5950  -16.1790   11.4061 N   0  0  0  0  0  0  0  0  0  0  0  0
  -17.9822  -16.4854   11.3776 C   0  0  0  0  0  0  0  0  0  0  0  0
  -18.9480  -15.7820   10.7292 N   0  0  0  0  0  0  0  0  0  0  0  0
  -20.0855  -16.4064   10.9618 N   0  0  0  0  0  0  0  0  0  0  0  0
  -19.8994  -17.4903   11.7370 C   0  0  0  0  0  0  0  0  0  0  0  0
  -20.9075  -18.4508   12.2220 C   0  0  0  0  0  0  0  0  0  0  0  0
  -21.9058  -18.9319   11.4019 C   0  0  0  0  0  0  0  0  0  0  0  0
  -22.8712  -19.8326   11.8141 C   0  0  0  0  0  0  0  0  0  0  0  0
  -22.8142  -20.2680   13.1415 C   0  0  0  0  0  0  0  0  0  0  0  0
  -20.8863  -18.9056   13.5264 C   0  0  0  0  0  0  0  0  0  0  0  0
  -23.8739  -21.1469   13.2852 C   0  0  0  0  0  0  0  0  0  0  0  0
  -23.9185  -20.4369   11.2259 N   0  0  0  0  0  0  0  0  0  0  0  0
  -23.8757  -21.4527    9.0418 C   0  0  0  0  0  0  0  0  0  0  0  0
  -23.9703  -23.8104    8.5240 C   0  0  0  0  0  0  0  0  0  0  0  0
  -23.0000  -23.6484    7.5577 C   0  0  0  0  0  0  0  0  0  0  0  0
  -21.2481  -25.3130    7.2165 N   0  0  1  0  0  4  0  0  0  0  0  0
  -20.0338  -26.6487    8.7810 C   0  0  0  0  0  0  0  0  0  0  0  0
  -19.0488  -26.3074    7.8623 O   0  0  0  0  0  0  0  0  0  0  0  0
  -19.3676  -26.7587    6.5945 C   0  0  0  0  0  0  0  0  0  0  0  0
  -22.4763  -22.3959    7.3407 C   0  0  0  0  0  0  0  0  0  0  0  0
  -18.5429  -17.5523   12.0128 C   0  0  0  0  0  0  0  0  0  0  0  0
  -17.9365  -18.5796   12.8212 C   0  0  0  0  0  0  0  0  0  0  0  0
  -17.4605  -19.4245   13.4718 N   0  0  0  0  0  0  0  0  0  0  0  0
 17  1  2  0
  1 18  1  0
  2 19  2  0
 20  2  1  0
  3 20  1  0
 21  3  1  0
  4 21  2  0
 22  4  1  0
 23  5  1  0
 24  5  1  6
 24  6  1  0
  6 25  1  0
 24  7  1  0
  7 27  1  0
 21  8  1  0
  8 28  2  0
 10  9  1  0
 10 11  1  0
 29 10  2  0
 12 11  1  0
 13 12  2  0
 14 13  1  0
 13 29  1  0
 15 14  1  0
 14 18  2  0
 16 15  2  0
 16 17  1  0
 20 16  1  0
 17 19  1  0
 22 23  2  0
 23 28  1  0
 25 26  1  0
 26 27  1  0
 29 30  1  0
 30 31  3  0
M  CHG  1  24   1
M  END
$$$$
