
     RDKit          3D

 31 35  0  0  0  0  0  0  0  0999 V2000
  -23.5057  -19.0759   11.7995 C   0  0  0  0  0  0  0  0  0  0  0  0
  -24.0224  -22.3709   10.4009 C   0  0  0  0  0  0  0  0  0  0  0  0
  -21.7406  -23.2731   10.0907 C   0  0  0  0  0  0  0  0  0  0  0  0
  -23.1018  -24.9923    8.8632 C   0  0  0  0  0  0  0  0  0  0  0  0
  -24.5584  -28.3240    9.8990 C   0  0  0  0  0  0  0  0  0  0  0  0
  -25.2444  -30.1765   11.2805 C   0  0  0  0  0  0  0  0  0  0  0  0
  -22.9413  -29.6882   10.8952 C   0  0  0  0  0  0  0  0  0  0  0  0
  -22.5497  -25.4153   11.1171 C   0  0  0  0  0  0  0  0  0  0  0  0
  -17.7467  -15.8603   13.4360 N   0  0  0  0  0  0  0  0  0  0  0  0
  -18.3292  -17.0275   12.8728 C   0  0  0  0  0  0  0  0  0  0  0  0
  -17.6591  -18.0937   12.3607 N   0  0  0  0  0  0  0  0  0  0  0  0
  -18.5746  -18.9477   11.9477 N   0  0  0  0  0  0  0  0  0  0  0  0
  -19.8164  -18.4800   12.1704 C   0  0  0  0  0  0  0  0  0  0  0  0
  -21.1052  -19.1243   11.8578 C   0  0  0  0  0  0  0  0  0  0  0  0
  -21.1718  -20.3931   11.3228 C   0  0  0  0  0  0  0  0  0  0  0  0
  -22.3573  -21.0354   11.0141 C   0  0  0  0  0  0  0  0  0  0  0  0
  -23.5447  -20.3418   11.2666 C   0  0  0  0  0  0  0  0  0  0  0  0
  -22.3010  -18.4731   12.0921 C   0  0  0  0  0  0  0  0  0  0  0  0
  -24.5600  -21.1977   10.8754 C   0  0  0  0  0  0  0  0  0  0  0  0
  -22.6811  -22.2353   10.5007 N   0  0  0  0  0  0  0  0  0  0  0  0
  -22.4792  -24.5874   10.0208 C   0  0  0  0  0  0  0  0  0  0  0  0
  -23.7875  -26.2080    8.7968 C   0  0  0  0  0  0  0  0  0  0  0  0
  -23.8434  -27.0199    9.9100 C   0  0  0  0  0  0  0  0  0  0  0  0
  -24.2669  -29.1349   11.0519 N   0  0  1  0  0  4  0  0  0  0  0  0
  -24.6978  -31.0871   12.3596 C   0  0  0  0  0  0  0  0  0  0  0  0
  -23.5762  -30.5579   12.9861 O   0  0  0  0  0  0  0  0  0  0  0  0
  -22.5072  -30.4733   12.1129 C   0  0  0  0  0  0  0  0  0  0  0  0
  -23.2201  -26.6125   11.0656 C   0  0  0  0  0  0  0  0  0  0  0  0
  -19.6711  -17.2386   12.7685 C   0  0  0  0  0  0  0  0  0  0  0  0
  -20.7788  -16.4073   13.1668 C   0  0  0  0  0  0  0  0  0  0  0  0
  -21.6882  -15.7501   13.4906 N   0  0  0  0  0  0  0  0  0  0  0  0
 17  1  2  0
  1 18  1  0
  2 19  2  0
 20  2  1  0
  3 20  1  0
 21  3  1  0
  4 21  2  0
 22  4  1  0
 23  5  1  0
 24  5  1  6
 24  6  1  0
  6 25  1  0
 24  7  1  0
  7 27  1  0
 21  8  1  0
  8 28  2  0
 10  9  1  0
 10 11  1  0
 29 10  2  0
 12 11  1  0
 13 12  2  0
 14 13  1  0
 13 29  1  0
 15 14  1  0
 14 18  2  0
 16 15  2  0
 16 17  1  0
 20 16  1  0
 17 19  1  0
 22 23  2  0
 23 28  1  0
 25 26  1  0
 26 27  1  0
 29 30  1  0
 30 31  3  0
M  CHG  1  24   1
M  END
$$$$
