
     RDKit          3D

 31 35  0  0  0  0  0  0  0  0999 V2000
  -14.8195  -11.0530   26.1382 C   0  0  0  0  0  0  0  0  0  0  0  0
  -13.8404  -10.2632   29.5289 C   0  0  0  0  0  0  0  0  0  0  0  0
  -11.6076   -9.2245   29.2993 C   0  0  0  0  0  0  0  0  0  0  0  0
  -12.8158   -7.3475   30.4536 C   0  0  0  0  0  0  0  0  0  0  0  0
  -12.6275   -3.5867   30.1134 C   0  0  0  0  0  0  0  0  0  0  0  0
  -13.7305   -1.6368   29.2231 C   0  0  0  0  0  0  0  0  0  0  0  0
  -12.2465   -2.9507   27.8955 C   0  0  0  0  0  0  0  0  0  0  0  0
  -11.2172   -6.7945   28.8095 C   0  0  0  0  0  0  0  0  0  0  0  0
  -11.6029   -8.6606   20.5150 N   0  0  0  0  0  0  0  0  0  0  0  0
  -11.5348   -9.2738   21.7950 C   0  0  0  0  0  0  0  0  0  0  0  0
  -10.4694   -9.9422   22.3108 N   0  0  0  0  0  0  0  0  0  0  0  0
  -10.8280  -10.3468   23.5132 N   0  0  0  0  0  0  0  0  0  0  0  0
  -12.0864   -9.9682   23.8020 C   0  0  0  0  0  0  0  0  0  0  0  0
  -12.8562  -10.2195   25.0343 C   0  0  0  0  0  0  0  0  0  0  0  0
  -12.3716   -9.8707   26.2769 C   0  0  0  0  0  0  0  0  0  0  0  0
  -13.0584  -10.0874   27.4578 C   0  0  0  0  0  0  0  0  0  0  0  0
  -14.3138  -10.6957   27.3648 C   0  0  0  0  0  0  0  0  0  0  0  0
  -14.1002  -10.8183   24.9857 C   0  0  0  0  0  0  0  0  0  0  0  0
  -14.7730  -10.7907   28.6672 C   0  0  0  0  0  0  0  0  0  0  0  0
  -12.8118   -9.8458   28.7574 N   0  0  0  0  0  0  0  0  0  0  0  0
  -11.8865   -7.7588   29.5268 C   0  0  0  0  0  0  0  0  0  0  0  0
  -13.0766   -5.9910   30.6646 C   0  0  0  0  0  0  0  0  0  0  0  0
  -12.3920   -5.0440   29.9325 C   0  0  0  0  0  0  0  0  0  0  0  0
  -13.2238   -2.9659   28.9597 N   0  0  1  0  0  4  0  0  0  0  0  0
  -14.1050   -1.0187   27.8928 C   0  0  0  0  0  0  0  0  0  0  0  0
  -14.0993   -1.9426   26.8551 O   0  0  0  0  0  0  0  0  0  0  0  0
  -12.8214   -2.4088   26.6058 C   0  0  0  0  0  0  0  0  0  0  0  0
  -11.4638   -5.4582   29.0069 C   0  0  0  0  0  0  0  0  0  0  0  0
  -12.5546   -9.2733   22.6985 C   0  0  0  0  0  0  0  0  0  0  0  0
  -13.8737   -8.6994   22.6143 C   0  0  0  0  0  0  0  0  0  0  0  0
  -14.9369   -8.2239   22.5296 N   0  0  0  0  0  0  0  0  0  0  0  0
 17  1  2  0
  1 18  1  0
  2 19  2  0
 20  2  1  0
  3 20  1  0
 21  3  1  0
  4 21  2  0
 22  4  1  0
 23  5  1  0
 24  5  1  1
 24  6  1  0
  6 25  1  0
 24  7  1  0
  7 27  1  0
 21  8  1  0
  8 28  2  0
 10  9  1  0
 10 11  1  0
 29 10  2  0
 12 11  1  0
 13 12  2  0
 14 13  1  0
 13 29  1  0
 15 14  1  0
 14 18  2  0
 16 15  2  0
 16 17  1  0
 20 16  1  0
 17 19  1  0
 22 23  2  0
 23 28  1  0
 25 26  1  0
 26 27  1  0
 29 30  1  0
 30 31  3  0
M  CHG  1  24   1
M  END
$$$$
