
     RDKit          3D

 31 35  0  0  0  0  0  0  0  0999 V2000
  -23.6620  -19.7346   10.8383 C   0  0  0  0  0  0  0  0  0  0  0  0
  -22.7656  -23.2208   10.4877 C   0  0  0  0  0  0  0  0  0  0  0  0
  -24.1333  -24.0206    8.5886 C   0  0  0  0  0  0  0  0  0  0  0  0
  -22.2687  -25.6647    8.2205 C   0  0  0  0  0  0  0  0  0  0  0  0
  -19.5569  -25.9185    5.5981 C   0  0  0  0  0  0  0  0  0  0  0  0
  -17.7641  -24.9742    6.9040 C   0  0  0  0  0  0  0  0  0  0  0  0
  -17.5558  -25.3114    4.5515 C   0  0  0  0  0  0  0  0  0  0  0  0
  -22.4874  -23.8746    6.7000 C   0  0  0  0  0  0  0  0  0  0  0  0
  -28.8982  -16.5724    7.7100 N   0  0  0  0  0  0  0  0  0  0  0  0
  -27.8334  -17.5103    7.6364 C   0  0  0  0  0  0  0  0  0  0  0  0
  -27.3282  -18.0662    6.5033 N   0  0  0  0  0  0  0  0  0  0  0  0
  -26.3589  -18.8749    6.8834 N   0  0  0  0  0  0  0  0  0  0  0  0
  -26.2120  -18.8683    8.2208 C   0  0  0  0  0  0  0  0  0  0  0  0
  -25.2481  -19.6280    9.0380 C   0  0  0  0  0  0  0  0  0  0  0  0
  -24.9912  -20.9623    8.8047 C   0  0  0  0  0  0  0  0  0  0  0  0
  -24.0964  -21.7132    9.5453 C   0  0  0  0  0  0  0  0  0  0  0  0
  -23.4240  -21.0641   10.5851 C   0  0  0  0  0  0  0  0  0  0  0  0
  -24.5631  -19.0238   10.0746 C   0  0  0  0  0  0  0  0  0  0  0  0
  -22.6056  -22.0268   11.1504 C   0  0  0  0  0  0  0  0  0  0  0  0
  -23.6796  -22.9914    9.5186 N   0  0  0  0  0  0  0  0  0  0  0  0
  -22.9386  -24.5318    7.8210 C   0  0  0  0  0  0  0  0  0  0  0  0
  -21.1615  -26.1388    7.5121 C   0  0  0  0  0  0  0  0  0  0  0  0
  -20.7290  -25.4616    6.3914 C   0  0  0  0  0  0  0  0  0  0  0  0
  -18.4572  -24.9905    5.6343 N   0  0  1  0  0  4  0  0  0  0  0  0
  -16.5071  -24.1490    6.7277 C   0  0  0  0  0  0  0  0  0  0  0  0
  -16.4896  -23.4544    5.5244 O   0  0  0  0  0  0  0  0  0  0  0  0
  -16.4192  -24.3190    4.4474 C   0  0  0  0  0  0  0  0  0  0  0  0
  -21.4007  -24.3296    5.9947 C   0  0  0  0  0  0  0  0  0  0  0  0
  -27.1601  -17.9894    8.7196 C   0  0  0  0  0  0  0  0  0  0  0  0
  -27.3264  -17.7024   10.1219 C   0  0  0  0  0  0  0  0  0  0  0  0
  -27.4686  -17.4514   11.2535 N   0  0  0  0  0  0  0  0  0  0  0  0
 17  1  2  0
  1 18  1  0
  2 19  2  0
 20  2  1  0
  3 20  1  0
 21  3  1  0
  4 21  2  0
 22  4  1  0
 23  5  1  0
 24  5  1  1
 24  6  1  0
  6 25  1  0
 24  7  1  0
  7 27  1  0
 21  8  1  0
  8 28  2  0
 10  9  1  0
 10 11  1  0
 29 10  2  0
 12 11  1  0
 13 12  2  0
 14 13  1  0
 13 29  1  0
 15 14  1  0
 14 18  2  0
 16 15  2  0
 16 17  1  0
 20 16  1  0
 17 19  1  0
 22 23  2  0
 23 28  1  0
 25 26  1  0
 26 27  1  0
 29 30  1  0
 30 31  3  0
M  CHG  1  24   1
M  END
$$$$
