
     RDKit          3D

 31 35  0  0  0  0  0  0  0  0999 V2000
  -19.6167  -20.1877   13.0792 C   0  0  0  0  0  0  0  0  0  0  0  0
  -22.5599  -21.5790   11.5036 C   0  0  0  0  0  0  0  0  0  0  0  0
  -23.9484  -19.6101   10.9448 C   0  0  0  0  0  0  0  0  0  0  0  0
  -24.3237  -20.1985    8.5306 C   0  0  0  0  0  0  0  0  0  0  0  0
  -26.1053  -23.0736    6.8412 C   0  0  0  0  0  0  0  0  0  0  0  0
  -26.1553  -25.3534    6.0594 C   0  0  0  0  0  0  0  0  0  0  0  0
  -24.1271  -24.0996    6.1323 C   0  0  0  0  0  0  0  0  0  0  0  0
  -25.2031  -21.6426   10.1755 C   0  0  0  0  0  0  0  0  0  0  0  0
  -17.7957  -13.6272   13.6044 N   0  0  0  0  0  0  0  0  0  0  0  0
  -18.8543  -14.5654   13.4694 C   0  0  0  0  0  0  0  0  0  0  0  0
  -20.1838  -14.2954   13.5558 N   0  0  0  0  0  0  0  0  0  0  0  0
  -20.8107  -15.4405   13.3717 N   0  0  0  0  0  0  0  0  0  0  0  0
  -19.9416  -16.4473   13.1685 C   0  0  0  0  0  0  0  0  0  0  0  0
  -20.2341  -17.8718   12.9252 C   0  0  0  0  0  0  0  0  0  0  0  0
  -21.3996  -18.2793   12.3118 C   0  0  0  0  0  0  0  0  0  0  0  0
  -21.7151  -19.6030   12.0640 C   0  0  0  0  0  0  0  0  0  0  0  0
  -20.7861  -20.5676   12.4657 C   0  0  0  0  0  0  0  0  0  0  0  0
  -19.3427  -18.8559   13.3068 C   0  0  0  0  0  0  0  0  0  0  0  0
  -21.3399  -21.7836   12.1038 C   0  0  0  0  0  0  0  0  0  0  0  0
  -22.7542  -20.2412   11.4974 N   0  0  0  0  0  0  0  0  0  0  0  0
  -24.5023  -20.5016    9.8603 C   0  0  0  0  0  0  0  0  0  0  0  0
  -24.8369  -21.0218    7.5250 C   0  0  0  0  0  0  0  0  0  0  0  0
  -25.5359  -22.1600    7.8674 C   0  0  0  0  0  0  0  0  0  0  0  0
  -25.4087  -24.3305    6.7586 N   0  0  1  0  0  4  0  0  0  0  0  0
  -25.2253  -26.5274    5.8387 C   0  0  0  0  0  0  0  0  0  0  0  0
  -24.0408  -26.4115    6.5556 O   0  0  0  0  0  0  0  0  0  0  0  0
  -23.2793  -25.3517    6.0980 C   0  0  0  0  0  0  0  0  0  0  0  0
  -25.7128  -22.4603    9.1972 C   0  0  0  0  0  0  0  0  0  0  0  0
  -18.6727  -15.8941   13.2294 C   0  0  0  0  0  0  0  0  0  0  0  0
  -17.4595  -16.6530   13.0599 C   0  0  0  0  0  0  0  0  0  0  0  0
  -16.4821  -17.2803   12.9378 N   0  0  0  0  0  0  0  0  0  0  0  0
 17  1  2  0
  1 18  1  0
  2 19  2  0
 20  2  1  0
  3 20  1  0
 21  3  1  0
  4 21  2  0
 22  4  1  0
 23  5  1  0
 24  5  1  6
 24  6  1  0
  6 25  1  0
 24  7  1  0
  7 27  1  0
 21  8  1  0
  8 28  2  0
 10  9  1  0
 10 11  1  0
 29 10  2  0
 12 11  1  0
 13 12  2  0
 14 13  1  0
 13 29  1  0
 15 14  1  0
 14 18  2  0
 16 15  2  0
 16 17  1  0
 20 16  1  0
 17 19  1  0
 22 23  2  0
 23 28  1  0
 25 26  1  0
 26 27  1  0
 29 30  1  0
 30 31  3  0
M  CHG  1  24   1
M  END
$$$$
