
     RDKit          3D

 31 35  0  0  0  0  0  0  0  0999 V2000
  -21.3488  -20.0106   13.7345 C   0  0  0  0  0  0  0  0  0  0  0  0
  -23.4703  -22.6274   12.4187 C   0  0  0  0  0  0  0  0  0  0  0  0
  -23.9875  -21.8996   10.1122 C   0  0  0  0  0  0  0  0  0  0  0  0
  -22.3776  -23.3301    8.8172 C   0  0  0  0  0  0  0  0  0  0  0  0
  -22.3762  -26.9975    7.8978 C   0  0  0  0  0  0  0  0  0  0  0  0
  -21.0927  -28.9877    8.3484 C   0  0  0  0  0  0  0  0  0  0  0  0
  -20.0446  -26.8696    8.0227 C   0  0  0  0  0  0  0  0  0  0  0  0
  -24.3156  -24.3517    9.6916 C   0  0  0  0  0  0  0  0  0  0  0  0
  -19.4198  -14.1343   10.9004 N   0  0  0  0  0  0  0  0  0  0  0  0
  -20.0203  -15.4061   10.6978 C   0  0  0  0  0  0  0  0  0  0  0  0
  -20.4220  -15.9252    9.5073 N   0  0  0  0  0  0  0  0  0  0  0  0
  -20.9211  -17.1172    9.7683 N   0  0  0  0  0  0  0  0  0  0  0  0
  -20.8607  -17.3960   11.0832 C   0  0  0  0  0  0  0  0  0  0  0  0
  -21.3103  -18.6150   11.7803 C   0  0  0  0  0  0  0  0  0  0  0  0
  -22.1242  -19.5437   11.1674 C   0  0  0  0  0  0  0  0  0  0  0  0
  -22.5696  -20.6997   11.7826 C   0  0  0  0  0  0  0  0  0  0  0  0
  -22.1600  -20.9208   13.1009 C   0  0  0  0  0  0  0  0  0  0  0  0
  -20.9282  -18.8708   13.0831 C   0  0  0  0  0  0  0  0  0  0  0  0
  -22.7358  -22.1253   13.4669 C   0  0  0  0  0  0  0  0  0  0  0  0
  -23.3458  -21.7334   11.4124 N   0  0  0  0  0  0  0  0  0  0  0  0
  -23.5499  -23.2207    9.5282 C   0  0  0  0  0  0  0  0  0  0  0  0
  -21.9713  -24.5519    8.2744 C   0  0  0  0  0  0  0  0  0  0  0  0
  -22.7570  -25.6711    8.4524 C   0  0  0  0  0  0  0  0  0  0  0  0
  -21.2101  -27.5572    8.5293 N   0  0  1  0  0  4  0  0  0  0  0  0
  -19.7240  -29.4004    8.8466 C   0  0  0  0  0  0  0  0  0  0  0  0
  -19.0810  -28.3840    9.5424 O   0  0  0  0  0  0  0  0  0  0  0  0
  -18.7759  -27.3221    8.7107 C   0  0  0  0  0  0  0  0  0  0  0  0
  -23.9282  -25.5585    9.1635 C   0  0  0  0  0  0  0  0  0  0  0  0
  -20.2800  -16.2969   11.6953 C   0  0  0  0  0  0  0  0  0  0  0  0
  -20.0382  -16.2049   13.1129 C   0  0  0  0  0  0  0  0  0  0  0  0
  -19.8262  -16.1184   14.2581 N   0  0  0  0  0  0  0  0  0  0  0  0
 17  1  2  0
  1 18  1  0
  2 19  2  0
 20  2  1  0
  3 20  1  0
 21  3  1  0
  4 21  2  0
 22  4  1  0
 23  5  1  0
 24  5  1  6
 24  6  1  0
  6 25  1  0
 24  7  1  0
  7 27  1  0
 21  8  1  0
  8 28  2  0
 10  9  1  0
 10 11  1  0
 29 10  2  0
 12 11  1  0
 13 12  2  0
 14 13  1  0
 13 29  1  0
 15 14  1  0
 14 18  2  0
 16 15  2  0
 16 17  1  0
 20 16  1  0
 17 19  1  0
 22 23  2  0
 23 28  1  0
 25 26  1  0
 26 27  1  0
 29 30  1  0
 30 31  3  0
M  CHG  1  24   1
M  END
$$$$
