
     RDKit          3D

 31 35  0  0  0  0  0  0  0  0999 V2000
  -13.4754   -7.7237   26.4358 C   0  0  0  0  0  0  0  0  0  0  0  0
  -12.3987   -9.2365   29.5394 C   0  0  0  0  0  0  0  0  0  0  0  0
  -12.0158  -11.6118   28.9666 C   0  0  0  0  0  0  0  0  0  0  0  0
   -9.6031  -11.6414   29.6692 C   0  0  0  0  0  0  0  0  0  0  0  0
   -7.9155  -11.4470   33.0469 C   0  0  0  0  0  0  0  0  0  0  0  0
   -6.8379   -9.4649   32.1974 C   0  0  0  0  0  0  0  0  0  0  0  0
   -5.7280  -10.9450   33.7035 C   0  0  0  0  0  0  0  0  0  0  0  0
  -11.2474  -11.4580   31.3505 C   0  0  0  0  0  0  0  0  0  0  0  0
  -13.6017  -10.4764   20.1903 N   0  0  0  0  0  0  0  0  0  0  0  0
  -13.6346  -10.6994   21.5933 C   0  0  0  0  0  0  0  0  0  0  0  0
  -13.8916  -11.8812   22.2139 N   0  0  0  0  0  0  0  0  0  0  0  0
  -13.8232  -11.6461   23.5093 N   0  0  0  0  0  0  0  0  0  0  0  0
  -13.5316  -10.3564   23.7581 C   0  0  0  0  0  0  0  0  0  0  0  0
  -13.3670   -9.6923   25.0642 C   0  0  0  0  0  0  0  0  0  0  0  0
  -12.9479  -10.3821   26.1818 C   0  0  0  0  0  0  0  0  0  0  0  0
  -12.7801   -9.8004   27.4255 C   0  0  0  0  0  0  0  0  0  0  0  0
  -13.0562   -8.4342   27.5347 C   0  0  0  0  0  0  0  0  0  0  0  0
  -13.6294   -8.3442   25.2144 C   0  0  0  0  0  0  0  0  0  0  0  0
  -12.8098   -8.1147   28.8589 C   0  0  0  0  0  0  0  0  0  0  0  0
  -12.3930  -10.2415   28.6353 N   0  0  0  0  0  0  0  0  0  0  0  0
  -10.9321  -11.5691   30.0161 C   0  0  0  0  0  0  0  0  0  0  0  0
   -8.5983  -11.6035   30.6394 C   0  0  0  0  0  0  0  0  0  0  0  0
   -8.9409  -11.4917   31.9705 C   0  0  0  0  0  0  0  0  0  0  0  0
   -6.6817  -10.8386   32.6233 N   0  0  1  0  0  4  0  0  0  0  0  0
   -5.4523   -8.8838   32.0118 C   0  0  0  0  0  0  0  0  0  0  0  0
   -4.4577   -9.8531   32.0525 O   0  0  0  0  0  0  0  0  0  0  0  0
   -4.3643  -10.4232   33.3090 C   0  0  0  0  0  0  0  0  0  0  0  0
  -10.2700  -11.4197   32.3142 C   0  0  0  0  0  0  0  0  0  0  0  0
  -13.4071   -9.7334   22.5267 C   0  0  0  0  0  0  0  0  0  0  0  0
  -13.0961   -8.3357   22.3644 C   0  0  0  0  0  0  0  0  0  0  0  0
  -12.8620   -7.1982   22.2414 N   0  0  0  0  0  0  0  0  0  0  0  0
 17  1  2  0
  1 18  1  0
  2 19  2  0
 20  2  1  0
  3 20  1  0
 21  3  1  0
  4 21  2  0
 22  4  1  0
 23  5  1  0
 24  5  1  1
 24  6  1  0
  6 25  1  0
 24  7  1  0
  7 27  1  0
 21  8  1  0
  8 28  2  0
 10  9  1  0
 10 11  1  0
 29 10  2  0
 12 11  1  0
 13 12  2  0
 14 13  1  0
 13 29  1  0
 15 14  1  0
 14 18  2  0
 16 15  2  0
 16 17  1  0
 20 16  1  0
 17 19  1  0
 22 23  2  0
 23 28  1  0
 25 26  1  0
 26 27  1  0
 29 30  1  0
 30 31  3  0
M  CHG  1  24   1
M  END
$$$$
