
     RDKit          3D

 31 35  0  0  0  0  0  0  0  0999 V2000
  -14.9642   -8.9647   27.2936 C   0  0  0  0  0  0  0  0  0  0  0  0
  -13.3146   -7.5778   30.1980 C   0  0  0  0  0  0  0  0  0  0  0  0
  -10.9046   -7.7041   29.6565 C   0  0  0  0  0  0  0  0  0  0  0  0
  -11.4933   -5.3875   28.8806 C   0  0  0  0  0  0  0  0  0  0  0  0
   -9.4253   -2.2751   28.3053 C   0  0  0  0  0  0  0  0  0  0  0  0
  -10.1056   -0.0678   28.9954 C   0  0  0  0  0  0  0  0  0  0  0  0
  -11.0475   -1.1245   27.0752 C   0  0  0  0  0  0  0  0  0  0  0  0
   -9.2362   -5.8490   29.3872 C   0  0  0  0  0  0  0  0  0  0  0  0
  -12.1006  -12.1178   21.9456 N   0  0  0  0  0  0  0  0  0  0  0  0
  -11.9663  -11.1499   22.9772 C   0  0  0  0  0  0  0  0  0  0  0  0
  -10.9607  -10.2440   23.1039 N   0  0  0  0  0  0  0  0  0  0  0  0
  -11.2218   -9.5448   24.1906 N   0  0  0  0  0  0  0  0  0  0  0  0
  -12.3591   -9.9594   24.7780 C   0  0  0  0  0  0  0  0  0  0  0  0
  -12.9956   -9.4426   26.0035 C   0  0  0  0  0  0  0  0  0  0  0  0
  -12.2533   -8.9365   27.0492 C   0  0  0  0  0  0  0  0  0  0  0  0
  -12.8075   -8.4421   28.2161 C   0  0  0  0  0  0  0  0  0  0  0  0
  -14.2014   -8.4654   28.3217 C   0  0  0  0  0  0  0  0  0  0  0  0
  -14.3696   -9.4479   26.1476 C   0  0  0  0  0  0  0  0  0  0  0  0
  -14.4845   -7.9223   29.5631 C   0  0  0  0  0  0  0  0  0  0  0  0
  -12.3164   -7.9087   29.3486 N   0  0  0  0  0  0  0  0  0  0  0  0
  -10.5385   -6.2837   29.3010 C   0  0  0  0  0  0  0  0  0  0  0  0
  -11.1563   -4.0725   28.5495 C   0  0  0  0  0  0  0  0  0  0  0  0
   -9.8434   -3.6615   28.6444 C   0  0  0  0  0  0  0  0  0  0  0  0
  -10.5021   -1.3243   28.3982 N   0  0  1  0  0  4  0  0  0  0  0  0
  -11.2509    0.9056   28.8141 C   0  0  0  0  0  0  0  0  0  0  0  0
  -12.4127    0.2855   28.3712 O   0  0  0  0  0  0  0  0  0  0  0  0
  -12.2569   -0.2163   27.0920 C   0  0  0  0  0  0  0  0  0  0  0  0
   -8.8913   -4.5595   29.0649 C   0  0  0  0  0  0  0  0  0  0  0  0
  -12.8503  -10.9973   24.0026 C   0  0  0  0  0  0  0  0  0  0  0  0
  -14.0642  -11.7143   24.3007 C   0  0  0  0  0  0  0  0  0  0  0  0
  -15.0369  -12.3106   24.5498 N   0  0  0  0  0  0  0  0  0  0  0  0
 17  1  2  0
  1 18  1  0
  2 19  2  0
 20  2  1  0
  3 20  1  0
 21  3  1  0
  4 21  2  0
 22  4  1  0
 23  5  1  0
 24  5  1  6
 24  6  1  0
  6 25  1  0
 24  7  1  0
  7 27  1  0
 21  8  1  0
  8 28  2  0
 10  9  1  0
 10 11  1  0
 29 10  2  0
 12 11  1  0
 13 12  2  0
 14 13  1  0
 13 29  1  0
 15 14  1  0
 14 18  2  0
 16 15  2  0
 16 17  1  0
 20 16  1  0
 17 19  1  0
 22 23  2  0
 23 28  1  0
 25 26  1  0
 26 27  1  0
 29 30  1  0
 30 31  3  0
M  CHG  1  24   1
M  END
$$$$
