
     RDKit          3D

 17 18  0  0  0  0  0  0  0  0999 V2000
   -5.9294    5.8403   -1.9016 C   0  0  0  0  0  0  0  0  0  0  0  0
   -2.5318    7.6135   -1.5235 C   0  0  0  0  0  0  0  0  0  0  0  0
   -0.6061    8.7982   -1.5341 C   0  0  0  0  0  0  0  0  0  0  0  0
   -1.0039    9.3397   -0.3402 C   0  0  0  0  0  0  0  0  0  0  0  0
   -4.9855    7.3529   -0.3430 O   0  0  0  0  0  0  0  0  0  0  0  0
   -4.8190    6.6558   -1.3694 C   0  0  0  0  0  0  0  0  0  0  0  0
   -7.0542    5.8325   -0.8980 C   0  0  0  0  0  0  0  0  0  0  0  0
   -3.5399    6.6865   -1.9830 N   0  0  0  0  0  0  0  0  0  0  0  0
   -2.5165    8.5580   -0.1062 S   0  0  0  0  0  0  0  0  0  0  0  0
   -1.3959    7.9393   -2.0951 N   0  0  0  0  0  0  0  0  0  0  0  0
    0.6834    9.1850   -2.1575 C   0  0  0  0  0  0  0  0  0  0  0  0
    1.4512   10.1850   -1.6109 C   0  0  0  0  0  0  0  0  0  0  0  0
    2.6663   10.5779   -2.1645 C   0  0  0  0  0  0  0  0  0  0  0  0
    3.0965    9.9263   -3.3031 C   0  0  0  0  0  0  0  0  0  0  0  0
    4.6144   10.3647   -4.0571 Cl  0  0  0  0  0  0  0  0  0  0  0  0
    2.3309    8.9209   -3.8579 C   0  0  0  0  0  0  0  0  0  0  0  0
    1.1365    8.5362   -3.3121 C   0  0  0  0  0  0  0  0  0  0  0  0
  6  1  1  0
  1  7  1  0
  8  2  1  0
  2  9  1  0
  2 10  2  0
  3  4  2  0
 10  3  1  0
  3 11  1  0
  9  4  1  0
  6  5  2  0
  6  8  1  0
 11 12  2  0
 11 17  1  0
 12 13  1  0
 13 14  2  0
 14 15  1  0
 14 16  1  0
 16 17  2  0
M  END
$$$$
