
     RDKit          3D

 17 18  0  0  0  0  0  0  0  0999 V2000
   -5.8992    5.8551   -1.8298 C   0  0  0  0  0  0  0  0  0  0  0  0
   -2.4695    7.5723   -1.5943 C   0  0  0  0  0  0  0  0  0  0  0  0
   -0.5678    8.7655   -1.8621 C   0  0  0  0  0  0  0  0  0  0  0  0
   -0.9719    9.5326   -0.8014 C   0  0  0  0  0  0  0  0  0  0  0  0
   -4.9890    7.5927   -0.5029 O   0  0  0  0  0  0  0  0  0  0  0  0
   -4.7850    6.7030   -1.3596 C   0  0  0  0  0  0  0  0  0  0  0  0
   -6.8811    5.6690   -0.7012 C   0  0  0  0  0  0  0  0  0  0  0  0
   -3.4607    6.5521   -1.8463 N   0  0  0  0  0  0  0  0  0  0  0  0
   -2.4677    8.7874   -0.4006 S   0  0  0  0  0  0  0  0  0  0  0  0
   -1.3425    7.7953   -2.2292 N   0  0  0  0  0  0  0  0  0  0  0  0
    0.7114    9.0404   -2.5614 C   0  0  0  0  0  0  0  0  0  0  0  0
    1.2536    8.1113   -3.4165 C   0  0  0  0  0  0  0  0  0  0  0  0
    2.4511    8.3301   -4.0916 C   0  0  0  0  0  0  0  0  0  0  0  0
    3.1003    9.5299   -3.8799 C   0  0  0  0  0  0  0  0  0  0  0  0
    4.6110    9.8776   -4.6934 Cl  0  0  0  0  0  0  0  0  0  0  0  0
    2.5620   10.4680   -3.0226 C   0  0  0  0  0  0  0  0  0  0  0  0
    1.3847   10.2509   -2.3599 C   0  0  0  0  0  0  0  0  0  0  0  0
  6  1  1  0
  1  7  1  0
  8  2  1  0
  2  9  1  0
  2 10  2  0
  3  4  2  0
 10  3  1  0
  3 11  1  0
  9  4  1  0
  6  5  2  0
  6  8  1  0
 11 12  2  0
 11 17  1  0
 12 13  1  0
 13 14  2  0
 14 15  1  0
 14 16  1  0
 16 17  2  0
M  END
$$$$
