
     RDKit          3D

 17 18  0  0  0  0  0  0  0  0999 V2000
   -6.1704    5.5131   -0.5775 C   0  0  0  0  0  0  0  0  0  0  0  0
   -3.2015    7.6881   -1.7095 C   0  0  0  0  0  0  0  0  0  0  0  0
   -1.4470    9.0361   -2.1746 C   0  0  0  0  0  0  0  0  0  0  0  0
   -2.2565    9.6775   -3.0746 C   0  0  0  0  0  0  0  0  0  0  0  0
   -5.8436    7.1901   -2.2174 O   0  0  0  0  0  0  0  0  0  0  0  0
   -5.3344    6.4728   -1.3267 C   0  0  0  0  0  0  0  0  0  0  0  0
   -6.5014    4.3488   -1.4759 C   0  0  0  0  0  0  0  0  0  0  0  0
   -3.9456    6.6234   -1.0773 N   0  0  0  0  0  0  0  0  0  0  0  0
   -3.7193    8.7929   -2.8980 S   0  0  0  0  0  0  0  0  0  0  0  0
   -1.9545    8.0468   -1.5113 N   0  0  0  0  0  0  0  0  0  0  0  0
   -0.0408    9.4631   -1.9709 C   0  0  0  0  0  0  0  0  0  0  0  0
    0.7177    9.8975   -3.0312 C   0  0  0  0  0  0  0  0  0  0  0  0
    2.0399   10.3066   -2.8828 C   0  0  0  0  0  0  0  0  0  0  0  0
    2.5887   10.2663   -1.6167 C   0  0  0  0  0  0  0  0  0  0  0  0
    4.2456   10.7650   -1.3509 Cl  0  0  0  0  0  0  0  0  0  0  0  0
    1.8331    9.8312   -0.5468 C   0  0  0  0  0  0  0  0  0  0  0  0
    0.5335    9.4295   -0.6948 C   0  0  0  0  0  0  0  0  0  0  0  0
  6  1  1  0
  1  7  1  0
  8  2  1  0
  2  9  1  0
  2 10  2  0
  3  4  2  0
 10  3  1  0
  3 11  1  0
  9  4  1  0
  6  5  2  0
  6  8  1  0
 11 12  2  0
 11 17  1  0
 12 13  1  0
 13 14  2  0
 14 15  1  0
 14 16  1  0
 16 17  2  0
M  END
$$$$
