
     RDKit          3D

 17 18  0  0  0  0  0  0  0  0999 V2000
   -6.1201    5.7807   -1.6985 C   0  0  0  0  0  0  0  0  0  0  0  0
   -2.9821    7.9853   -1.5155 C   0  0  0  0  0  0  0  0  0  0  0  0
   -0.9451    8.9601   -1.4052 C   0  0  0  0  0  0  0  0  0  0  0  0
   -1.2585    9.3292   -0.1236 C   0  0  0  0  0  0  0  0  0  0  0  0
   -5.2492    7.3095   -0.1132 O   0  0  0  0  0  0  0  0  0  0  0  0
   -5.1522    6.8041   -1.2544 C   0  0  0  0  0  0  0  0  0  0  0  0
   -7.5127    6.2437   -1.3538 C   0  0  0  0  0  0  0  0  0  0  0  0
   -4.0905    7.2523   -2.0823 N   0  0  0  0  0  0  0  0  0  0  0  0
   -2.8382    8.6716    0.0368 S   0  0  0  0  0  0  0  0  0  0  0  0
   -1.8315    8.2897   -2.0692 N   0  0  0  0  0  0  0  0  0  0  0  0
    0.3635    9.3179   -2.0058 C   0  0  0  0  0  0  0  0  0  0  0  0
    1.1696   10.2599   -1.4134 C   0  0  0  0  0  0  0  0  0  0  0  0
    2.4037   10.6239   -1.9443 C   0  0  0  0  0  0  0  0  0  0  0  0
    2.8128   10.0040   -3.1080 C   0  0  0  0  0  0  0  0  0  0  0  0
    4.3525   10.4091   -3.8359 Cl  0  0  0  0  0  0  0  0  0  0  0  0
    2.0086    9.0569   -3.7089 C   0  0  0  0  0  0  0  0  0  0  0  0
    0.7957    8.7004   -3.1853 C   0  0  0  0  0  0  0  0  0  0  0  0
  6  1  1  0
  1  7  1  0
  8  2  1  0
  2  9  1  0
  2 10  2  0
  3  4  2  0
 10  3  1  0
  3 11  1  0
  9  4  1  0
  6  5  2  0
  6  8  1  0
 11 12  2  0
 11 17  1  0
 12 13  1  0
 13 14  2  0
 14 15  1  0
 14 16  1  0
 16 17  2  0
M  END
$$$$
