
     RDKit          3D

 17 18  0  0  0  0  0  0  0  0999 V2000
   -5.8352    5.6112   -1.1689 C   0  0  0  0  0  0  0  0  0  0  0  0
   -2.5505    7.6206   -1.2757 C   0  0  0  0  0  0  0  0  0  0  0  0
   -0.6169    8.7815   -1.4342 C   0  0  0  0  0  0  0  0  0  0  0  0
   -1.0098    9.4704   -0.3172 C   0  0  0  0  0  0  0  0  0  0  0  0
   -5.0433    7.5983   -0.1529 O   0  0  0  0  0  0  0  0  0  0  0  0
   -4.8179    6.6591   -0.9492 C   0  0  0  0  0  0  0  0  0  0  0  0
   -6.8443    6.1126   -2.1704 C   0  0  0  0  0  0  0  0  0  0  0  0
   -3.5653    6.6504   -1.6158 N   0  0  0  0  0  0  0  0  0  0  0  0
   -2.5274    8.7344    0.0128 S   0  0  0  0  0  0  0  0  0  0  0  0
   -1.4130    7.8648   -1.8835 N   0  0  0  0  0  0  0  0  0  0  0  0
    0.6747    9.0787   -2.1011 C   0  0  0  0  0  0  0  0  0  0  0  0
    1.5792    9.9353   -1.5213 C   0  0  0  0  0  0  0  0  0  0  0  0
    2.8013   10.2405   -2.1138 C   0  0  0  0  0  0  0  0  0  0  0  0
    3.0946    9.6503   -3.3268 C   0  0  0  0  0  0  0  0  0  0  0  0
    4.6118    9.9851   -4.1334 Cl  0  0  0  0  0  0  0  0  0  0  0  0
    2.1911    8.7887   -3.9154 C   0  0  0  0  0  0  0  0  0  0  0  0
    0.9903    8.4901   -3.3313 C   0  0  0  0  0  0  0  0  0  0  0  0
  6  1  1  0
  1  7  1  0
  8  2  1  0
  2  9  1  0
  2 10  2  0
  3  4  2  0
 10  3  1  0
  3 11  1  0
  9  4  1  0
  6  5  2  0
  6  8  1  0
 11 12  2  0
 11 17  1  0
 12 13  1  0
 13 14  2  0
 14 15  1  0
 14 16  1  0
 16 17  2  0
M  END
$$$$
