
     RDKit          3D

 17 18  0  0  0  0  0  0  0  0999 V2000
   -6.4942    5.6676   -0.6654 C   0  0  0  0  0  0  0  0  0  0  0  0
   -3.3369    7.5515   -1.8170 C   0  0  0  0  0  0  0  0  0  0  0  0
   -1.4656    8.6799   -2.3971 C   0  0  0  0  0  0  0  0  0  0  0  0
   -2.0266    8.8525   -3.6350 C   0  0  0  0  0  0  0  0  0  0  0  0
   -5.7013    6.5245   -2.7258 O   0  0  0  0  0  0  0  0  0  0  0  0
   -5.4844    6.3414   -1.5065 C   0  0  0  0  0  0  0  0  0  0  0  0
   -6.4867    4.1934   -0.9800 C   0  0  0  0  0  0  0  0  0  0  0  0
   -4.2485    6.8024   -0.9835 N   0  0  0  0  0  0  0  0  0  0  0  0
   -3.5296    8.0429   -3.4365 S   0  0  0  0  0  0  0  0  0  0  0  0
   -2.1504    8.0247   -1.5152 N   0  0  0  0  0  0  0  0  0  0  0  0
   -0.1222    9.2258   -2.0835 C   0  0  0  0  0  0  0  0  0  0  0  0
    0.8065    9.4104   -3.0793 C   0  0  0  0  0  0  0  0  0  0  0  0
    2.0772    9.9197   -2.8274 C   0  0  0  0  0  0  0  0  0  0  0  0
    2.3946   10.2442   -1.5236 C   0  0  0  0  0  0  0  0  0  0  0  0
    3.9731   10.8899   -1.1284 Cl  0  0  0  0  0  0  0  0  0  0  0  0
    1.4671   10.0616   -0.5180 C   0  0  0  0  0  0  0  0  0  0  0  0
    0.2184    9.5608   -0.7678 C   0  0  0  0  0  0  0  0  0  0  0  0
  6  1  1  0
  1  7  1  0
  8  2  1  0
  2  9  1  0
  2 10  2  0
  3  4  2  0
 10  3  1  0
  3 11  1  0
  9  4  1  0
  6  5  2  0
  6  8  1  0
 11 12  2  0
 11 17  1  0
 12 13  1  0
 13 14  2  0
 14 15  1  0
 14 16  1  0
 16 17  2  0
M  END
$$$$
