
     RDKit          3D

 17 18  0  0  0  0  0  0  0  0999 V2000
   -5.9963    5.9079   -1.8272 C   0  0  0  0  0  0  0  0  0  0  0  0
   -2.5851    7.6819   -1.6051 C   0  0  0  0  0  0  0  0  0  0  0  0
   -0.6310    8.8180   -1.6544 C   0  0  0  0  0  0  0  0  0  0  0  0
   -0.9926    9.3716   -0.4546 C   0  0  0  0  0  0  0  0  0  0  0  0
   -4.9410    7.3355   -0.2599 O   0  0  0  0  0  0  0  0  0  0  0  0
   -4.8517    6.7011   -1.3354 C   0  0  0  0  0  0  0  0  0  0  0  0
   -6.7640    5.3735   -0.6450 C   0  0  0  0  0  0  0  0  0  0  0  0
   -3.6245    6.7796   -2.0434 N   0  0  0  0  0  0  0  0  0  0  0  0
   -2.5196    8.6285   -0.1905 S   0  0  0  0  0  0  0  0  0  0  0  0
   -1.4523    7.9782   -2.1985 N   0  0  0  0  0  0  0  0  0  0  0  0
    0.6560    9.1712   -2.3027 C   0  0  0  0  0  0  0  0  0  0  0  0
    1.0275    8.5796   -3.4860 C   0  0  0  0  0  0  0  0  0  0  0  0
    2.2256    8.8828   -4.1262 C   0  0  0  0  0  0  0  0  0  0  0  0
    3.0552    9.8139   -3.5339 C   0  0  0  0  0  0  0  0  0  0  0  0
    4.5787   10.2473   -4.2793 Cl  0  0  0  0  0  0  0  0  0  0  0  0
    2.6889   10.4125   -2.3454 C   0  0  0  0  0  0  0  0  0  0  0  0
    1.5105   10.1129   -1.7176 C   0  0  0  0  0  0  0  0  0  0  0  0
  6  1  1  0
  1  7  1  0
  8  2  1  0
  2  9  1  0
  2 10  2  0
  3  4  2  0
 10  3  1  0
  3 11  1  0
  9  4  1  0
  6  5  2  0
  6  8  1  0
 11 12  2  0
 11 17  1  0
 12 13  1  0
 13 14  2  0
 14 15  1  0
 14 16  1  0
 16 17  2  0
M  END
$$$$
