
     RDKit          3D

 17 18  0  0  0  0  0  0  0  0999 V2000
   -6.1488    6.1270   -1.6729 C   0  0  0  0  0  0  0  0  0  0  0  0
   -2.7247    7.8408   -1.3848 C   0  0  0  0  0  0  0  0  0  0  0  0
   -0.8241    9.0471   -1.5946 C   0  0  0  0  0  0  0  0  0  0  0  0
   -1.2378    9.7740   -0.5096 C   0  0  0  0  0  0  0  0  0  0  0  0
   -5.2064    7.7302   -0.2066 O   0  0  0  0  0  0  0  0  0  0  0  0
   -5.0235    6.9282   -1.1502 C   0  0  0  0  0  0  0  0  0  0  0  0
   -6.5924    5.1558   -0.6087 C   0  0  0  0  0  0  0  0  0  0  0  0
   -3.7115    6.8283   -1.6815 N   0  0  0  0  0  0  0  0  0  0  0  0
   -2.7347    9.0114   -0.1475 S   0  0  0  0  0  0  0  0  0  0  0  0
   -1.5936    8.0893   -2.0027 N   0  0  0  0  0  0  0  0  0  0  0  0
    0.4597    9.3502   -2.2738 C   0  0  0  0  0  0  0  0  0  0  0  0
    1.2219   10.4234   -1.8797 C   0  0  0  0  0  0  0  0  0  0  0  0
    2.4316   10.7420   -2.4903 C   0  0  0  0  0  0  0  0  0  0  0  0
    2.8619    9.9377   -3.5265 C   0  0  0  0  0  0  0  0  0  0  0  0
    4.3730   10.2748   -4.3436 Cl  0  0  0  0  0  0  0  0  0  0  0  0
    2.1018    8.8579   -3.9280 C   0  0  0  0  0  0  0  0  0  0  0  0
    0.9129    8.5465   -3.3264 C   0  0  0  0  0  0  0  0  0  0  0  0
  6  1  1  0
  1  7  1  0
  8  2  1  0
  2  9  1  0
  2 10  2  0
  3  4  2  0
 10  3  1  0
  3 11  1  0
  9  4  1  0
  6  5  2  0
  6  8  1  0
 11 12  2  0
 11 17  1  0
 12 13  1  0
 13 14  2  0
 14 15  1  0
 14 16  1  0
 16 17  2  0
M  END
$$$$
