
     RDKit          3D

 17 18  0  0  0  0  0  0  0  0999 V2000
   -6.2092    5.5128   -1.6430 C   0  0  0  0  0  0  0  0  0  0  0  0
   -3.2499    7.9703   -1.6001 C   0  0  0  0  0  0  0  0  0  0  0  0
   -1.5018    9.3798   -1.8634 C   0  0  0  0  0  0  0  0  0  0  0  0
   -2.3328   10.3894   -1.4548 C   0  0  0  0  0  0  0  0  0  0  0  0
   -5.9278    7.7872   -1.0462 O   0  0  0  0  0  0  0  0  0  0  0  0
   -5.3885    6.7195   -1.4154 C   0  0  0  0  0  0  0  0  0  0  0  0
   -6.8063    5.0737   -0.3303 C   0  0  0  0  0  0  0  0  0  0  0  0
   -3.9817    6.7248   -1.6005 N   0  0  0  0  0  0  0  0  0  0  0  0
   -3.7949    9.5287   -1.1810 S   0  0  0  0  0  0  0  0  0  0  0  0
   -1.9959    8.1846   -1.9234 N   0  0  0  0  0  0  0  0  0  0  0  0
   -0.0882    9.6510   -2.2228 C   0  0  0  0  0  0  0  0  0  0  0  0
    0.2649   10.8359   -2.8225 C   0  0  0  0  0  0  0  0  0  0  0  0
    1.5791   11.1292   -3.1754 C   0  0  0  0  0  0  0  0  0  0  0  0
    2.5460   10.1819   -2.9042 C   0  0  0  0  0  0  0  0  0  0  0  0
    4.2207   10.4786   -3.3188 Cl  0  0  0  0  0  0  0  0  0  0  0  0
    2.1990    8.9895   -2.3020 C   0  0  0  0  0  0  0  0  0  0  0  0
    0.9065    8.7031   -1.9559 C   0  0  0  0  0  0  0  0  0  0  0  0
  6  1  1  0
  1  7  1  0
  8  2  1  0
  2  9  1  0
  2 10  2  0
  3  4  2  0
 10  3  1  0
  3 11  1  0
  9  4  1  0
  6  5  2  0
  6  8  1  0
 11 12  2  0
 11 17  1  0
 12 13  1  0
 13 14  2  0
 14 15  1  0
 14 16  1  0
 16 17  2  0
M  END
$$$$
