
     RDKit          3D

 17 18  0  0  0  0  0  0  0  0999 V2000
   -5.8237    5.3329   -1.2310 C   0  0  0  0  0  0  0  0  0  0  0  0
   -2.7701    7.6556   -1.3288 C   0  0  0  0  0  0  0  0  0  0  0  0
   -0.8660    8.8744   -1.3438 C   0  0  0  0  0  0  0  0  0  0  0  0
   -1.3145    9.4768   -0.1981 C   0  0  0  0  0  0  0  0  0  0  0  0
   -5.2976    7.4297   -0.2641 O   0  0  0  0  0  0  0  0  0  0  0  0
   -4.9636    6.5210   -1.0577 C   0  0  0  0  0  0  0  0  0  0  0  0
   -6.9108    5.6577   -2.2236 C   0  0  0  0  0  0  0  0  0  0  0  0
   -3.7455    6.6842   -1.7669 N   0  0  0  0  0  0  0  0  0  0  0  0
   -2.8207    8.6812    0.0301 S   0  0  0  0  0  0  0  0  0  0  0  0
   -1.6207    7.9694   -1.8797 N   0  0  0  0  0  0  0  0  0  0  0  0
    0.4378    9.2490   -1.9448 C   0  0  0  0  0  0  0  0  0  0  0  0
    1.2275   10.2082   -1.3579 C   0  0  0  0  0  0  0  0  0  0  0  0
    2.4566   10.5883   -1.8893 C   0  0  0  0  0  0  0  0  0  0  0  0
    2.8777    9.9666   -3.0478 C   0  0  0  0  0  0  0  0  0  0  0  0
    4.4120   10.3912   -3.7760 Cl  0  0  0  0  0  0  0  0  0  0  0  0
    2.0901    9.0022   -3.6431 C   0  0  0  0  0  0  0  0  0  0  0  0
    0.8821    8.6300   -3.1190 C   0  0  0  0  0  0  0  0  0  0  0  0
  6  1  1  0
  1  7  1  0
  8  2  1  0
  2  9  1  0
  2 10  2  0
  3  4  2  0
 10  3  1  0
  3 11  1  0
  9  4  1  0
  6  5  2  0
  6  8  1  0
 11 12  2  0
 11 17  1  0
 12 13  1  0
 13 14  2  0
 14 15  1  0
 14 16  1  0
 16 17  2  0
M  END
$$$$
