
     RDKit          3D

 17 18  0  0  0  0  0  0  0  0999 V2000
   -6.4583    5.6540   -1.7987 C   0  0  0  0  0  0  0  0  0  0  0  0
   -3.1382    7.4289   -1.0120 C   0  0  0  0  0  0  0  0  0  0  0  0
   -1.2761    8.6917   -0.7894 C   0  0  0  0  0  0  0  0  0  0  0  0
   -1.7360    9.0424    0.4525 C   0  0  0  0  0  0  0  0  0  0  0  0
   -5.5861    6.8255    0.0655 O   0  0  0  0  0  0  0  0  0  0  0  0
   -5.3784    6.3566   -1.0765 C   0  0  0  0  0  0  0  0  0  0  0  0
   -6.6904    4.3146   -1.1471 C   0  0  0  0  0  0  0  0  0  0  0  0
   -4.0837    6.5291   -1.6310 N   0  0  0  0  0  0  0  0  0  0  0  0
   -3.2129    8.1663    0.5216 S   0  0  0  0  0  0  0  0  0  0  0  0
   -2.0042    7.8837   -1.4916 N   0  0  0  0  0  0  0  0  0  0  0  0
    0.0098    9.2211   -1.3064 C   0  0  0  0  0  0  0  0  0  0  0  0
    0.8001   10.0256   -0.5211 C   0  0  0  0  0  0  0  0  0  0  0  0
    2.0127   10.5425   -0.9680 C   0  0  0  0  0  0  0  0  0  0  0  0
    2.4167   10.2230   -2.2489 C   0  0  0  0  0  0  0  0  0  0  0  0
    3.9298   10.8354   -2.8815 Cl  0  0  0  0  0  0  0  0  0  0  0  0
    1.6283    9.4156   -3.0436 C   0  0  0  0  0  0  0  0  0  0  0  0
    0.4365    8.9085   -2.6023 C   0  0  0  0  0  0  0  0  0  0  0  0
  6  1  1  0
  1  7  1  0
  8  2  1  0
  2  9  1  0
  2 10  2  0
  3  4  2  0
 10  3  1  0
  3 11  1  0
  9  4  1  0
  6  5  2  0
  6  8  1  0
 11 12  2  0
 11 17  1  0
 12 13  1  0
 13 14  2  0
 14 15  1  0
 14 16  1  0
 16 17  2  0
M  END
$$$$
