
     RDKit          3D

 17 18  0  0  0  0  0  0  0  0999 V2000
   -5.6754    5.4949   -1.3744 C   0  0  0  0  0  0  0  0  0  0  0  0
   -2.6045    7.7940   -1.5091 C   0  0  0  0  0  0  0  0  0  0  0  0
   -0.6150    8.8674   -1.5460 C   0  0  0  0  0  0  0  0  0  0  0  0
   -0.9395    9.3832   -0.3190 C   0  0  0  0  0  0  0  0  0  0  0  0
   -4.8923    7.3039   -0.0619 O   0  0  0  0  0  0  0  0  0  0  0  0
   -4.7499    6.6115   -1.0951 C   0  0  0  0  0  0  0  0  0  0  0  0
   -7.0897    6.0163   -1.3547 C   0  0  0  0  0  0  0  0  0  0  0  0
   -3.6799    6.9442   -1.9656 N   0  0  0  0  0  0  0  0  0  0  0  0
   -2.4859    8.6798   -0.0591 S   0  0  0  0  0  0  0  0  0  0  0  0
   -1.4721    8.0773   -2.1093 N   0  0  0  0  0  0  0  0  0  0  0  0
    0.6726    9.2048   -2.2012 C   0  0  0  0  0  0  0  0  0  0  0  0
    1.6105    9.9667   -1.5471 C   0  0  0  0  0  0  0  0  0  0  0  0
    2.8302   10.3053   -2.1260 C   0  0  0  0  0  0  0  0  0  0  0  0
    3.0859    9.8489   -3.4036 C   0  0  0  0  0  0  0  0  0  0  0  0
    4.5978   10.2337   -4.1979 Cl  0  0  0  0  0  0  0  0  0  0  0  0
    2.1488    9.0832   -4.0671 C   0  0  0  0  0  0  0  0  0  0  0  0
    0.9503    8.7514   -3.4961 C   0  0  0  0  0  0  0  0  0  0  0  0
  6  1  1  0
  1  7  1  0
  8  2  1  0
  2  9  1  0
  2 10  2  0
  3  4  2  0
 10  3  1  0
  3 11  1  0
  9  4  1  0
  6  5  2  0
  6  8  1  0
 11 12  2  0
 11 17  1  0
 12 13  1  0
 13 14  2  0
 14 15  1  0
 14 16  1  0
 16 17  2  0
M  END
$$$$
