
     RDKit          3D

 17 18  0  0  0  0  0  0  0  0999 V2000
   -5.5871    5.4666   -1.2142 C   0  0  0  0  0  0  0  0  0  0  0  0
   -2.5043    7.7334   -1.4881 C   0  0  0  0  0  0  0  0  0  0  0  0
   -0.5327    8.8372   -1.5645 C   0  0  0  0  0  0  0  0  0  0  0  0
   -0.9324    9.5051   -0.4371 C   0  0  0  0  0  0  0  0  0  0  0  0
   -4.9401    7.5171   -0.2217 O   0  0  0  0  0  0  0  0  0  0  0  0
   -4.6936    6.6342   -1.0743 C   0  0  0  0  0  0  0  0  0  0  0  0
   -6.9508    5.9441   -1.6439 C   0  0  0  0  0  0  0  0  0  0  0  0
   -3.5395    6.8059   -1.8818 N   0  0  0  0  0  0  0  0  0  0  0  0
   -2.4797    8.8078   -0.1665 S   0  0  0  0  0  0  0  0  0  0  0  0
   -1.3449    7.9595   -2.0605 N   0  0  0  0  0  0  0  0  0  0  0  0
    0.7838    9.1131   -2.1906 C   0  0  0  0  0  0  0  0  0  0  0  0
    1.2550    8.3162   -3.2060 C   0  0  0  0  0  0  0  0  0  0  0  0
    2.4840    8.5408   -3.8197 C   0  0  0  0  0  0  0  0  0  0  0  0
    3.2401    9.6075   -3.3767 C   0  0  0  0  0  0  0  0  0  0  0  0
    4.7966    9.9535   -4.0994 Cl  0  0  0  0  0  0  0  0  0  0  0  0
    2.7736   10.4124   -2.3572 C   0  0  0  0  0  0  0  0  0  0  0  0
    1.5650   10.1899   -1.7553 C   0  0  0  0  0  0  0  0  0  0  0  0
  6  1  1  0
  1  7  1  0
  8  2  1  0
  2  9  1  0
  2 10  2  0
  3  4  2  0
 10  3  1  0
  3 11  1  0
  9  4  1  0
  6  5  2  0
  6  8  1  0
 11 12  2  0
 11 17  1  0
 12 13  1  0
 13 14  2  0
 14 15  1  0
 14 16  1  0
 16 17  2  0
M  END
$$$$
