
     RDKit          3D

 17 18  0  0  0  0  0  0  0  0999 V2000
   -5.7944    5.8205   -0.6972 C   0  0  0  0  0  0  0  0  0  0  0  0
   -2.4776    7.7614   -0.9898 C   0  0  0  0  0  0  0  0  0  0  0  0
   -0.6214    8.9484   -1.4971 C   0  0  0  0  0  0  0  0  0  0  0  0
   -1.0518    9.8896   -0.5994 C   0  0  0  0  0  0  0  0  0  0  0  0
   -5.1318    8.0780   -0.4271 O   0  0  0  0  0  0  0  0  0  0  0  0
   -4.7933    6.9063   -0.7091 C   0  0  0  0  0  0  0  0  0  0  0  0
   -6.6993    5.9776   -1.8926 C   0  0  0  0  0  0  0  0  0  0  0  0
   -3.4310    6.6770   -1.0336 N   0  0  0  0  0  0  0  0  0  0  0  0
   -2.5187    9.1820   -0.0508 S   0  0  0  0  0  0  0  0  0  0  0  0
   -1.3604    7.8988   -1.6651 N   0  0  0  0  0  0  0  0  0  0  0  0
    0.6460    9.1298   -2.2468 C   0  0  0  0  0  0  0  0  0  0  0  0
    1.4241   10.2440   -2.0439 C   0  0  0  0  0  0  0  0  0  0  0  0
    2.6192   10.4521   -2.7264 C   0  0  0  0  0  0  0  0  0  0  0  0
    3.0180    9.4922   -3.6349 C   0  0  0  0  0  0  0  0  0  0  0  0
    4.5093    9.6835   -4.5317 Cl  0  0  0  0  0  0  0  0  0  0  0  0
    2.2418    8.3703   -3.8442 C   0  0  0  0  0  0  0  0  0  0  0  0
    1.0672    8.1677   -3.1721 C   0  0  0  0  0  0  0  0  0  0  0  0
  6  1  1  0
  1  7  1  0
  8  2  1  0
  2  9  1  0
  2 10  2  0
  3  4  2  0
 10  3  1  0
  3 11  1  0
  9  4  1  0
  6  5  2  0
  6  8  1  0
 11 12  2  0
 11 17  1  0
 12 13  1  0
 13 14  2  0
 14 15  1  0
 14 16  1  0
 16 17  2  0
M  END
$$$$
