
     RDKit          3D

 17 18  0  0  0  0  0  0  0  0999 V2000
   -5.7457    5.5221   -1.0538 C   0  0  0  0  0  0  0  0  0  0  0  0
   -2.6381    7.7512   -1.3991 C   0  0  0  0  0  0  0  0  0  0  0  0
   -0.7018    8.9096   -1.5416 C   0  0  0  0  0  0  0  0  0  0  0  0
   -1.1451    9.6621   -0.4861 C   0  0  0  0  0  0  0  0  0  0  0  0
   -5.1510    7.6819   -0.2859 O   0  0  0  0  0  0  0  0  0  0  0  0
   -4.8505    6.6953   -0.9954 C   0  0  0  0  0  0  0  0  0  0  0  0
   -6.9939    5.8974   -1.8110 C   0  0  0  0  0  0  0  0  0  0  0  0
   -3.6350    6.7577   -1.7249 N   0  0  0  0  0  0  0  0  0  0  0  0
   -2.6742    8.9400   -0.1797 S   0  0  0  0  0  0  0  0  0  0  0  0
   -1.4755    7.9641   -1.9699 N   0  0  0  0  0  0  0  0  0  0  0  0
    0.6173    9.1726   -2.1677 C   0  0  0  0  0  0  0  0  0  0  0  0
    0.9810    8.5296   -3.3263 C   0  0  0  0  0  0  0  0  0  0  0  0
    2.2085    8.7479   -3.9453 C   0  0  0  0  0  0  0  0  0  0  0  0
    3.0761    9.6464   -3.3571 C   0  0  0  0  0  0  0  0  0  0  0  0
    4.6381    9.9735   -4.0767 Cl  0  0  0  0  0  0  0  0  0  0  0  0
    2.7178   10.2961   -2.1933 C   0  0  0  0  0  0  0  0  0  0  0  0
    1.5106   10.0801   -1.5865 C   0  0  0  0  0  0  0  0  0  0  0  0
  6  1  1  0
  1  7  1  0
  8  2  1  0
  2  9  1  0
  2 10  2  0
  3  4  2  0
 10  3  1  0
  3 11  1  0
  9  4  1  0
  6  5  2  0
  6  8  1  0
 11 12  2  0
 11 17  1  0
 12 13  1  0
 13 14  2  0
 14 15  1  0
 14 16  1  0
 16 17  2  0
M  END
$$$$
