
     RDKit          3D

 17 18  0  0  0  0  0  0  0  0999 V2000
   -6.3892    5.4237   -0.1162 C   0  0  0  0  0  0  0  0  0  0  0  0
   -3.4665    7.5621   -1.4350 C   0  0  0  0  0  0  0  0  0  0  0  0
   -1.6767    8.7463   -2.1463 C   0  0  0  0  0  0  0  0  0  0  0  0
   -2.3231    8.8869   -3.3460 C   0  0  0  0  0  0  0  0  0  0  0  0
   -5.7660    6.3142   -2.2202 O   0  0  0  0  0  0  0  0  0  0  0  0
   -5.4893    6.1849   -1.0062 C   0  0  0  0  0  0  0  0  0  0  0  0
   -7.4626    4.7711   -0.9494 C   0  0  0  0  0  0  0  0  0  0  0  0
   -4.2955    6.7918   -0.5371 N   0  0  0  0  0  0  0  0  0  0  0  0
   -3.7813    8.0296   -3.0424 S   0  0  0  0  0  0  0  0  0  0  0  0
   -2.2795    8.0779   -1.2158 N   0  0  0  0  0  0  0  0  0  0  0  0
   -0.3351    9.3402   -1.9263 C   0  0  0  0  0  0  0  0  0  0  0  0
    0.1161    9.5941   -0.6534 C   0  0  0  0  0  0  0  0  0  0  0  0
    1.3676   10.1501   -0.4040 C   0  0  0  0  0  0  0  0  0  0  0  0
    2.1676   10.4493   -1.4885 C   0  0  0  0  0  0  0  0  0  0  0  0
    3.7545   11.1506   -1.2547 Cl  0  0  0  0  0  0  0  0  0  0  0  0
    1.7214   10.1971   -2.7700 C   0  0  0  0  0  0  0  0  0  0  0  0
    0.4907    9.6505   -3.0130 C   0  0  0  0  0  0  0  0  0  0  0  0
  6  1  1  0
  1  7  1  0
  8  2  1  0
  2  9  1  0
  2 10  2  0
  3  4  2  0
 10  3  1  0
  3 11  1  0
  9  4  1  0
  6  5  2  0
  6  8  1  0
 11 12  2  0
 11 17  1  0
 12 13  1  0
 13 14  2  0
 14 15  1  0
 14 16  1  0
 16 17  2  0
M  END
$$$$
