
     RDKit          3D

 17 18  0  0  0  0  0  0  0  0999 V2000
   -5.6417    5.7235   -1.0720 C   0  0  0  0  0  0  0  0  0  0  0  0
   -2.4259    7.8111   -1.4144 C   0  0  0  0  0  0  0  0  0  0  0  0
   -0.5027    8.9746   -1.6581 C   0  0  0  0  0  0  0  0  0  0  0  0
   -0.9416    9.7933   -0.6512 C   0  0  0  0  0  0  0  0  0  0  0  0
   -4.9531    7.8758   -0.3637 O   0  0  0  0  0  0  0  0  0  0  0  0
   -4.6759    6.8390   -1.0082 C   0  0  0  0  0  0  0  0  0  0  0  0
   -6.6226    5.9899   -2.1852 C   0  0  0  0  0  0  0  0  0  0  0  0
   -3.4165    6.7887   -1.6600 N   0  0  0  0  0  0  0  0  0  0  0  0
   -2.4602    9.0800   -0.2785 S   0  0  0  0  0  0  0  0  0  0  0  0
   -1.2717    7.9950   -2.0119 N   0  0  0  0  0  0  0  0  0  0  0  0
    0.8068    9.2061   -2.3160 C   0  0  0  0  0  0  0  0  0  0  0  0
    1.6161   10.2418   -1.9155 C   0  0  0  0  0  0  0  0  0  0  0  0
    2.8512   10.4931   -2.5063 C   0  0  0  0  0  0  0  0  0  0  0  0
    3.2578    9.6598   -3.5291 C   0  0  0  0  0  0  0  0  0  0  0  0
    4.7985    9.9125   -4.3210 Cl  0  0  0  0  0  0  0  0  0  0  0  0
    2.4503    8.6174   -3.9369 C   0  0  0  0  0  0  0  0  0  0  0  0
    1.2365    8.3721   -3.3548 C   0  0  0  0  0  0  0  0  0  0  0  0
  6  1  1  0
  1  7  1  0
  8  2  1  0
  2  9  1  0
  2 10  2  0
  3  4  2  0
 10  3  1  0
  3 11  1  0
  9  4  1  0
  6  5  2  0
  6  8  1  0
 11 12  2  0
 11 17  1  0
 12 13  1  0
 13 14  2  0
 14 15  1  0
 14 16  1  0
 16 17  2  0
M  END
$$$$
