
     RDKit          3D

 40 43  0  0  0  0  0  0  0  0999 V2000
   71.5416   48.3960   14.8232 C   0  0  0  0  0  0  0  0  0  0  0  0
   70.2921   47.8322   15.0130 O   0  0  0  0  0  0  0  0  0  0  0  0
   71.4813   49.8289   15.1521 C   0  0  0  0  0  0  0  0  0  0  0  0
   72.5776   50.6401   14.9769 C   0  0  0  0  0  0  0  0  0  0  0  0
   72.5368   51.9973   15.2830 C   0  0  0  0  0  0  0  0  0  0  0  0
   71.3790   52.5596   15.7740 C   0  0  0  0  0  0  0  0  0  0  0  0
   70.2879   51.7285   15.9438 C   0  0  0  0  0  0  0  0  0  0  0  0
   70.3164   50.3702   15.6415 C   0  0  0  0  0  0  0  0  0  0  0  0
   71.2886   54.2791   16.1741 S   0  0  1  0  0  6  0  0  0  0  0  0
   70.0886   54.5160   17.0775 O   0  0  0  0  0  0  0  0  0  0  0  0
   72.4885   54.5871   16.9813 O   0  0  0  0  0  0  0  0  0  0  0  0
   71.1735   55.1670   14.7375 N   0  0  0  0  0  0  0  0  0  0  0  0
   69.9649   54.9719   14.0430 C   0  0  0  0  0  0  0  0  0  0  0  0
   70.0273   54.6511   12.5977 C   0  0  1  0  0  0  0  0  0  0  0  0
   68.8128   53.8770   12.1112 C   0  0  0  0  0  0  0  0  0  0  0  0
   70.4100   55.6992   11.6337 C   0  0  0  0  0  0  0  0  0  0  0  0
   71.5067   56.5468   14.8809 C   0  0  0  0  0  0  0  0  0  0  0  0
   70.2988   57.4304   15.0740 C   0  0  1  0  0  0  0  0  0  0  0  0
   69.2377   56.5240   11.2184 C   0  0  0  0  0  0  0  0  0  0  0  0
   69.1764   56.8037   14.5848 O   0  0  0  0  0  0  0  0  0  0  0  0
   70.2046   57.8693   16.4933 C   0  0  1  0  0  0  0  0  0  0  0  0
   71.2090   58.8895   16.8119 N   0  0  0  0  0  0  0  0  0  0  0  0
   72.2823   58.6036   17.6677 C   0  0  0  0  0  0  0  0  0  0  0  0
   72.3550   57.4680   18.1815 O   0  0  0  0  0  0  0  0  0  0  0  0
   73.2869   59.5058   17.9910 O   0  0  0  0  0  0  0  0  0  0  0  0
   74.1634   59.3905   19.0690 C   0  0  1  0  0  0  0  0  0  0  0  0
   75.4830   60.1052   18.8338 C   0  0  0  0  0  0  0  0  0  0  0  0
   75.0421   61.4190   18.6915 O   0  0  0  0  0  0  0  0  0  0  0  0
   74.1594   61.6429   19.7144 C   0  0  1  0  0  0  0  0  0  0  0  0
   73.0536   62.3766   19.2876 O   0  0  0  0  0  0  0  0  0  0  0  0
   71.9932   61.9979   20.1234 C   0  0  0  0  0  0  0  0  0  0  0  0
   72.1370   60.4712   20.0890 C   0  0  0  0  0  0  0  0  0  0  0  0
   73.6158   60.3068   20.1758 C   0  0  1  0  0  0  0  0  0  0  0  0
   68.8266   58.4050   16.7944 C   0  0  0  0  0  0  0  0  0  0  0  0
   68.7156   60.2345   18.3824 C   0  0  0  0  0  0  0  0  0  0  0  0
   68.5513   60.7166   19.6480 C   0  0  0  0  0  0  0  0  0  0  0  0
   68.2935   59.8574   20.6898 C   0  0  0  0  0  0  0  0  0  0  0  0
   68.1955   58.5080   20.4901 C   0  0  0  0  0  0  0  0  0  0  0  0
   68.3591   57.9910   19.2087 C   0  0  0  0  0  0  0  0  0  0  0  0
   68.6146   58.8530   18.1788 C   0  0  0  0  0  0  0  0  0  0  0  0
  1  2  1  0
  3  1  1  0
  4  3  2  0
  8  3  1  0
  5  4  1  0
  6  5  2  0
  6  7  1  0
  9  6  1  0
  7  8  2  0
  9 10  2  0
  9 11  2  0
  9 12  1  6
 12 13  1  0
 17 12  1  0
 13 14  1  0
 14 15  1  6
 14 16  1  0
 16 19  1  0
 18 17  1  0
 18 20  1  1
 21 18  1  0
 21 22  1  0
 21 34  1  6
 22 23  1  0
 23 24  2  0
 23 25  1  0
 26 25  1  6
 26 27  1  0
 26 33  1  0
 27 28  1  0
 29 28  1  6
 29 30  1  0
 33 29  1  0
 31 30  1  0
 32 31  1  0
 33 32  1  6
 40 34  1  0
 35 36  2  0
 35 40  1  0
 36 37  1  0
 37 38  2  0
 38 39  1  0
 39 40  2  0
M  END
$$$$
