
     RDKit          3D

 40 43  0  0  0  0  0  0  0  0999 V2000
   66.7269   49.7600   12.3011 C   0  0  0  0  0  0  0  0  0  0  0  0
   65.3531   49.7608   12.4681 O   0  0  0  0  0  0  0  0  0  0  0  0
   67.2789   51.0197   12.8244 C   0  0  0  0  0  0  0  0  0  0  0  0
   66.6319   51.7147   13.8187 C   0  0  0  0  0  0  0  0  0  0  0  0
   67.1409   52.9073   14.3246 C   0  0  0  0  0  0  0  0  0  0  0  0
   68.3204   53.4192   13.8301 C   0  0  0  0  0  0  0  0  0  0  0  0
   68.9560   52.7069   12.8308 C   0  0  0  0  0  0  0  0  0  0  0  0
   68.4571   51.5136   12.3168 C   0  0  0  0  0  0  0  0  0  0  0  0
   68.9981   54.9307   14.4472 S   0  0  1  0  0  6  0  0  0  0  0  0
   69.2528   55.8730   13.2812 O   0  0  0  0  0  0  0  0  0  0  0  0
   67.9439   55.5591   15.2718 O   0  0  0  0  0  0  0  0  0  0  0  0
   70.4234   54.5834   15.2919 N   0  0  0  0  0  0  0  0  0  0  0  0
   71.5437   54.3888   14.4624 C   0  0  0  0  0  0  0  0  0  0  0  0
   72.8917   54.4445   15.0753 C   0  0  1  0  0  0  0  0  0  0  0  0
   72.9865   53.6496   16.3677 C   0  0  0  0  0  0  0  0  0  0  0  0
   74.0846   54.2349   14.2343 C   0  0  0  0  0  0  0  0  0  0  0  0
   70.6895   55.4773   16.3716 C   0  0  0  0  0  0  0  0  0  0  0  0
   71.0855   56.8590   15.9122 C   0  0  1  0  0  0  0  0  0  0  0  0
   74.1950   52.8200   13.7729 C   0  0  0  0  0  0  0  0  0  0  0  0
   70.2565   57.2702   14.8944 O   0  0  0  0  0  0  0  0  0  0  0  0
   71.1596   57.7857   17.0748 C   0  0  1  0  0  0  0  0  0  0  0  0
   72.3916   58.5812   17.0548 N   0  0  0  0  0  0  0  0  0  0  0  0
   72.9449   59.0853   18.2405 C   0  0  0  0  0  0  0  0  0  0  0  0
   72.3176   58.9317   19.3091 O   0  0  0  0  0  0  0  0  0  0  0  0
   74.1595   59.7538   18.3147 O   0  0  0  0  0  0  0  0  0  0  0  0
   74.9705   59.8378   19.4455 C   0  0  1  0  0  0  0  0  0  0  0  0
   76.2946   60.5295   19.1702 C   0  0  0  0  0  0  0  0  0  0  0  0
   75.8498   61.7919   18.7842 O   0  0  0  0  0  0  0  0  0  0  0  0
   74.9049   62.1658   19.7022 C   0  0  1  0  0  0  0  0  0  0  0  0
   73.8195   62.7956   19.0951 O   0  0  0  0  0  0  0  0  0  0  0  0
   72.7144   62.5406   19.9199 C   0  0  0  0  0  0  0  0  0  0  0  0
   72.8755   61.0329   20.1508 C   0  0  0  0  0  0  0  0  0  0  0  0
   74.3480   60.9149   20.3492 C   0  0  1  0  0  0  0  0  0  0  0  0
   69.9640   58.7057   17.0993 C   0  0  0  0  0  0  0  0  0  0  0  0
   69.2914   58.2755   19.3892 C   0  0  0  0  0  0  0  0  0  0  0  0
   68.9300   58.7013   20.6338 C   0  0  0  0  0  0  0  0  0  0  0  0
   68.8803   60.0450   20.9201 C   0  0  0  0  0  0  0  0  0  0  0  0
   69.1883   60.9846   19.9754 C   0  0  0  0  0  0  0  0  0  0  0  0
   69.5598   60.5762   18.6981 C   0  0  0  0  0  0  0  0  0  0  0  0
   69.6070   59.2380   18.4227 C   0  0  0  0  0  0  0  0  0  0  0  0
  1  2  1  0
  3  1  1  0
  4  3  2  0
  8  3  1  0
  5  4  1  0
  6  5  2  0
  6  7  1  0
  9  6  1  0
  7  8  2  0
  9 10  2  0
  9 11  2  0
  9 12  1  1
 12 13  1  0
 17 12  1  0
 13 14  1  0
 14 15  1  1
 14 16  1  0
 16 19  1  0
 18 17  1  0
 18 20  1  6
 21 18  1  0
 21 22  1  0
 21 34  1  6
 22 23  1  0
 23 24  2  0
 23 25  1  0
 26 25  1  6
 26 27  1  0
 26 33  1  0
 27 28  1  0
 29 28  1  6
 29 30  1  0
 33 29  1  0
 31 30  1  0
 32 31  1  0
 33 32  1  6
 40 34  1  0
 35 36  2  0
 35 40  1  0
 36 37  1  0
 37 38  2  0
 38 39  1  0
 39 40  2  0
M  END
$$$$
