
     RDKit          3D

 40 43  0  0  0  0  0  0  0  0999 V2000
   66.3805   50.9197   12.9574 C   0  0  0  0  0  0  0  0  0  0  0  0
   65.1429   51.4880   12.7116 O   0  0  0  0  0  0  0  0  0  0  0  0
   67.2062   51.8691   13.7203 C   0  0  0  0  0  0  0  0  0  0  0  0
   67.0703   53.2255   13.5409 C   0  0  0  0  0  0  0  0  0  0  0  0
   67.8434   54.1366   14.2547 C   0  0  0  0  0  0  0  0  0  0  0  0
   68.7722   53.6876   15.1677 C   0  0  0  0  0  0  0  0  0  0  0  0
   68.8949   52.3211   15.3338 C   0  0  0  0  0  0  0  0  0  0  0  0
   68.1278   51.4003   14.6262 C   0  0  0  0  0  0  0  0  0  0  0  0
   69.7723   54.8138   16.0930 S   0  0  1  0  0  6  0  0  0  0  0  0
   69.2375   56.2245   15.9022 O   0  0  0  0  0  0  0  0  0  0  0  0
   69.5734   54.4793   17.5194 O   0  0  0  0  0  0  0  0  0  0  0  0
   71.3753   54.6773   15.5665 N   0  0  0  0  0  0  0  0  0  0  0  0
   71.5470   53.7872   14.4898 C   0  0  0  0  0  0  0  0  0  0  0  0
   72.9054   53.2584   14.2232 C   0  0  1  0  0  0  0  0  0  0  0  0
   72.8929   51.8241   13.7199 C   0  0  0  0  0  0  0  0  0  0  0  0
   73.8719   54.0776   13.4689 C   0  0  0  0  0  0  0  0  0  0  0  0
   72.0229   55.9300   15.3505 C   0  0  0  0  0  0  0  0  0  0  0  0
   71.0577   57.0854   15.2473 C   0  0  1  0  0  0  0  0  0  0  0  0
   73.6977   53.9221   11.9949 C   0  0  0  0  0  0  0  0  0  0  0  0
   69.8317   56.6349   14.8160 O   0  0  0  0  0  0  0  0  0  0  0  0
   71.0321   57.8496   16.5245 C   0  0  1  0  0  0  0  0  0  0  0  0
   72.3040   58.5377   16.7687 N   0  0  0  0  0  0  0  0  0  0  0  0
   72.7046   58.8744   18.0696 C   0  0  0  0  0  0  0  0  0  0  0  0
   72.0534   58.4231   19.0346 O   0  0  0  0  0  0  0  0  0  0  0  0
   73.7905   59.6865   18.3683 O   0  0  0  0  0  0  0  0  0  0  0  0
   74.5611   59.6150   19.5279 C   0  0  1  0  0  0  0  0  0  0  0  0
   75.9564   60.1863   19.3436 C   0  0  0  0  0  0  0  0  0  0  0  0
   75.6531   61.5095   19.0306 O   0  0  0  0  0  0  0  0  0  0  0  0
   74.7143   61.9162   19.9410 C   0  0  1  0  0  0  0  0  0  0  0  0
   73.7205   62.6900   19.3435 O   0  0  0  0  0  0  0  0  0  0  0  0
   72.5645   62.4945   20.1127 C   0  0  0  0  0  0  0  0  0  0  0  0
   72.5676   60.9664   20.2450 C   0  0  0  0  0  0  0  0  0  0  0  0
   74.0125   60.6884   20.4825 C   0  0  1  0  0  0  0  0  0  0  0  0
   69.9062   58.8540   16.5212 C   0  0  0  0  0  0  0  0  0  0  0  0
   68.7566   60.5465   17.8231 C   0  0  0  0  0  0  0  0  0  0  0  0
   68.3873   61.0983   19.0149 C   0  0  0  0  0  0  0  0  0  0  0  0
   68.7679   60.5119   20.1986 C   0  0  0  0  0  0  0  0  0  0  0  0
   69.5202   59.3700   20.2161 C   0  0  0  0  0  0  0  0  0  0  0  0
   69.9099   58.7873   19.0141 C   0  0  0  0  0  0  0  0  0  0  0  0
   69.5264   59.3772   17.8419 C   0  0  0  0  0  0  0  0  0  0  0  0
  1  2  1  0
  3  1  1  0
  4  3  2  0
  8  3  1  0
  5  4  1  0
  6  5  2  0
  6  7  1  0
  9  6  1  0
  7  8  2  0
  9 10  2  0
  9 11  2  0
  9 12  1  6
 12 13  1  0
 17 12  1  0
 13 14  1  0
 14 15  1  6
 14 16  1  0
 16 19  1  0
 18 17  1  0
 18 20  1  1
 21 18  1  0
 21 22  1  0
 21 34  1  6
 22 23  1  0
 23 24  2  0
 23 25  1  0
 26 25  1  6
 26 27  1  0
 26 33  1  0
 27 28  1  0
 29 28  1  6
 29 30  1  0
 33 29  1  0
 31 30  1  0
 32 31  1  0
 33 32  1  6
 40 34  1  0
 35 36  2  0
 35 40  1  0
 36 37  1  0
 37 38  2  0
 38 39  1  0
 39 40  2  0
M  END
$$$$
