
     RDKit          3D

 40 43  0  0  0  0  0  0  0  0999 V2000
   65.4784   52.4771   12.2789 C   0  0  0  0  0  0  0  0  0  0  0  0
   65.0567   51.1600   12.3286 O   0  0  0  0  0  0  0  0  0  0  0  0
   66.5046   52.6962   13.3104 C   0  0  0  0  0  0  0  0  0  0  0  0
   67.4684   51.7478   13.5599 C   0  0  0  0  0  0  0  0  0  0  0  0
   68.4461   51.9398   14.5319 C   0  0  0  0  0  0  0  0  0  0  0  0
   68.4650   53.1018   15.2716 C   0  0  0  0  0  0  0  0  0  0  0  0
   67.4881   54.0429   15.0070 C   0  0  0  0  0  0  0  0  0  0  0  0
   66.5055   53.8625   14.0380 C   0  0  0  0  0  0  0  0  0  0  0  0
   69.6905   53.3818   16.5144 S   0  0  1  0  0  6  0  0  0  0  0  0
   69.0199   53.3928   17.8791 O   0  0  0  0  0  0  0  0  0  0  0  0
   70.5852   52.2048   16.4962 O   0  0  0  0  0  0  0  0  0  0  0  0
   70.4697   54.8491   16.1899 N   0  0  0  0  0  0  0  0  0  0  0  0
   71.5953   54.7233   15.3543 C   0  0  0  0  0  0  0  0  0  0  0  0
   72.9178   54.4985   15.9838 C   0  0  1  0  0  0  0  0  0  0  0  0
   72.8425   53.6115   17.2161 C   0  0  0  0  0  0  0  0  0  0  0  0
   74.0750   54.1416   15.1425 C   0  0  0  0  0  0  0  0  0  0  0  0
   69.5904   55.8919   15.7717 C   0  0  0  0  0  0  0  0  0  0  0  0
   70.3065   57.1867   15.4754 C   0  0  1  0  0  0  0  0  0  0  0  0
   73.8792   54.5630   13.7244 C   0  0  0  0  0  0  0  0  0  0  0  0
   69.6566   57.8621   14.4686 O   0  0  0  0  0  0  0  0  0  0  0  0
   70.5017   57.9648   16.7293 C   0  0  1  0  0  0  0  0  0  0  0  0
   71.8876   58.4233   16.8713 N   0  0  0  0  0  0  0  0  0  0  0  0
   72.4467   58.6511   18.1368 C   0  0  0  0  0  0  0  0  0  0  0  0
   72.3480   57.7606   19.0064 O   0  0  0  0  0  0  0  0  0  0  0  0
   73.1133   59.8137   18.4999 O   0  0  0  0  0  0  0  0  0  0  0  0
   74.1915   59.8883   19.3805 C   0  0  1  0  0  0  0  0  0  0  0  0
   75.3814   60.6272   18.7929 C   0  0  0  0  0  0  0  0  0  0  0  0
   74.8241   61.8867   18.5836 O   0  0  0  0  0  0  0  0  0  0  0  0
   74.1466   62.2046   19.7306 C   0  0  1  0  0  0  0  0  0  0  0  0
   72.9265   62.8193   19.4531 O   0  0  0  0  0  0  0  0  0  0  0  0
   72.0834   62.5068   20.5291 C   0  0  0  0  0  0  0  0  0  0  0  0
   72.3314   60.9983   20.6542 C   0  0  0  0  0  0  0  0  0  0  0  0
   73.8062   60.9188   20.4547 C   0  0  1  0  0  0  0  0  0  0  0  0
   69.5701   59.1509   16.7701 C   0  0  0  0  0  0  0  0  0  0  0  0
   68.8423   58.6165   19.0209 C   0  0  0  0  0  0  0  0  0  0  0  0
   68.4735   58.9841   20.2818 C   0  0  0  0  0  0  0  0  0  0  0  0
   68.4648   60.3104   20.6433 C   0  0  0  0  0  0  0  0  0  0  0  0
   68.8217   61.2902   19.7585 C   0  0  0  0  0  0  0  0  0  0  0  0
   69.2018   60.9416   18.4662 C   0  0  0  0  0  0  0  0  0  0  0  0
   69.2079   59.6201   18.1158 C   0  0  0  0  0  0  0  0  0  0  0  0
  1  2  1  0
  3  1  1  0
  4  3  2  0
  8  3  1  0
  5  4  1  0
  6  5  2  0
  6  7  1  0
  9  6  1  0
  7  8  2  0
  9 10  2  0
  9 11  2  0
  9 12  1  6
 12 13  1  0
 17 12  1  0
 13 14  1  0
 14 15  1  1
 14 16  1  0
 16 19  1  0
 18 17  1  0
 18 20  1  6
 21 18  1  0
 21 22  1  0
 21 34  1  6
 22 23  1  0
 23 24  2  0
 23 25  1  0
 26 25  1  6
 26 27  1  0
 26 33  1  0
 27 28  1  0
 29 28  1  6
 29 30  1  0
 33 29  1  0
 31 30  1  0
 32 31  1  0
 33 32  1  6
 40 34  1  0
 35 36  2  0
 35 40  1  0
 36 37  1  0
 37 38  2  0
 38 39  1  0
 39 40  2  0
M  END
$$$$
