
     RDKit          3D

 40 43  0  0  0  0  0  0  0  0999 V2000
   72.3951   49.8243   12.6842 C   0  0  0  0  0  0  0  0  0  0  0  0
   71.1867   49.3479   12.2067 O   0  0  0  0  0  0  0  0  0  0  0  0
   72.1613   51.0631   13.4430 C   0  0  0  0  0  0  0  0  0  0  0  0
   72.6714   52.2638   13.0087 C   0  0  0  0  0  0  0  0  0  0  0  0
   72.4591   53.4445   13.7147 C   0  0  0  0  0  0  0  0  0  0  0  0
   71.7223   53.4296   14.8786 C   0  0  0  0  0  0  0  0  0  0  0  0
   71.2184   52.2135   15.2995 C   0  0  0  0  0  0  0  0  0  0  0  0
   71.4239   51.0265   14.6025 C   0  0  0  0  0  0  0  0  0  0  0  0
   71.4313   54.9082   15.8026 S   0  0  1  0  0  6  0  0  0  0  0  0
   71.5142   54.5901   17.2873 O   0  0  0  0  0  0  0  0  0  0  0  0
   72.5576   55.8190   15.5053 O   0  0  0  0  0  0  0  0  0  0  0  0
   69.9123   55.5242   15.3800 N   0  0  0  0  0  0  0  0  0  0  0  0
   69.0760   55.7825   16.4824 C   0  0  0  0  0  0  0  0  0  0  0  0
   67.6940   55.2484   16.4580 C   0  0  1  0  0  0  0  0  0  0  0  0
   66.6497   56.2952   16.8107 C   0  0  0  0  0  0  0  0  0  0  0  0
   67.2523   54.4194   15.3214 C   0  0  0  0  0  0  0  0  0  0  0  0
   69.9644   56.6165   14.4638 C   0  0  0  0  0  0  0  0  0  0  0  0
   70.9143   57.7066   14.8956 C   0  0  1  0  0  0  0  0  0  0  0  0
   67.7864   53.0288   15.4099 C   0  0  0  0  0  0  0  0  0  0  0  0
   70.3946   58.9376   14.5693 O   0  0  0  0  0  0  0  0  0  0  0  0
   71.2735   57.5368   16.3302 C   0  0  1  0  0  0  0  0  0  0  0  0
   72.3473   58.4520   16.7309 N   0  0  0  0  0  0  0  0  0  0  0  0
   72.7238   58.5785   18.0756 C   0  0  0  0  0  0  0  0  0  0  0  0
   72.0674   57.9663   18.9435 O   0  0  0  0  0  0  0  0  0  0  0  0
   73.7909   59.3476   18.5202 O   0  0  0  0  0  0  0  0  0  0  0  0
   74.6368   59.0241   19.5801 C   0  0  1  0  0  0  0  0  0  0  0  0
   76.0230   59.6272   19.4321 C   0  0  0  0  0  0  0  0  0  0  0  0
   75.7146   60.9857   19.4408 O   0  0  0  0  0  0  0  0  0  0  0  0
   74.8438   61.1773   20.4803 C   0  0  1  0  0  0  0  0  0  0  0  0
   73.8210   62.0605   20.1378 O   0  0  0  0  0  0  0  0  0  0  0  0
   72.7171   61.6952   20.9217 C   0  0  0  0  0  0  0  0  0  0  0  0
   72.7116   60.1757   20.7123 C   0  0  0  0  0  0  0  0  0  0  0  0
   74.1660   59.8575   20.7835 C   0  0  1  0  0  0  0  0  0  0  0  0
   70.0677   57.7558   17.2103 C   0  0  0  0  0  0  0  0  0  0  0  0
   68.8768   59.6143   18.2146 C   0  0  0  0  0  0  0  0  0  0  0  0
   68.8449   60.7589   18.9564 C   0  0  0  0  0  0  0  0  0  0  0  0
   69.9987   61.2568   19.5138 C   0  0  0  0  0  0  0  0  0  0  0  0
   71.2000   60.6260   19.3427 C   0  0  0  0  0  0  0  0  0  0  0  0
   71.2595   59.4570   18.5904 C   0  0  0  0  0  0  0  0  0  0  0  0
   70.1069   58.9690   18.0403 C   0  0  0  0  0  0  0  0  0  0  0  0
  1  2  1  0
  3  1  1  0
  4  3  2  0
  8  3  1  0
  5  4  1  0
  6  5  2  0
  6  7  1  0
  9  6  1  0
  7  8  2  0
  9 10  2  0
  9 11  2  0
  9 12  1  1
 12 13  1  0
 17 12  1  0
 13 14  1  0
 14 15  1  6
 14 16  1  0
 16 19  1  0
 18 17  1  0
 18 20  1  1
 21 18  1  0
 21 22  1  0
 21 34  1  1
 22 23  1  0
 23 24  2  0
 23 25  1  0
 26 25  1  6
 26 27  1  0
 26 33  1  0
 27 28  1  0
 29 28  1  6
 29 30  1  0
 33 29  1  0
 31 30  1  0
 32 31  1  0
 33 32  1  6
 40 34  1  0
 35 36  2  0
 35 40  1  0
 36 37  1  0
 37 38  2  0
 38 39  1  0
 39 40  2  0
M  END
$$$$
