
     RDKit          3D

 40 43  0  0  0  0  0  0  0  0999 V2000
   72.8572   48.9037   15.3811 C   0  0  0  0  0  0  0  0  0  0  0  0
   71.9679   48.0135   14.8051 O   0  0  0  0  0  0  0  0  0  0  0  0
   72.5059   50.2726   14.9710 C   0  0  0  0  0  0  0  0  0  0  0  0
   73.0679   51.3621   15.5938 C   0  0  0  0  0  0  0  0  0  0  0  0
   72.7464   52.6631   15.2177 C   0  0  0  0  0  0  0  0  0  0  0  0
   71.8461   52.8845   14.1989 C   0  0  0  0  0  0  0  0  0  0  0  0
   71.2914   51.7772   13.5854 C   0  0  0  0  0  0  0  0  0  0  0  0
   71.6047   50.4718   13.9524 C   0  0  0  0  0  0  0  0  0  0  0  0
   71.4128   54.5220   13.6931 S   0  0  1  0  0  6  0  0  0  0  0  0
   72.6798   55.3526   13.5622 O   0  0  0  0  0  0  0  0  0  0  0  0
   70.8450   54.4061   12.3328 O   0  0  0  0  0  0  0  0  0  0  0  0
   70.3496   55.1807   14.8338 N   0  0  0  0  0  0  0  0  0  0  0  0
   69.3826   54.2715   15.3021 C   0  0  0  0  0  0  0  0  0  0  0  0
   68.0736   54.2171   14.6097 C   0  0  1  0  0  0  0  0  0  0  0  0
   67.8722   55.3667   13.6355 C   0  0  0  0  0  0  0  0  0  0  0  0
   67.6063   52.9435   14.0320 C   0  0  0  0  0  0  0  0  0  0  0  0
   70.9982   55.8844   15.8918 C   0  0  0  0  0  0  0  0  0  0  0  0
   70.7202   57.3675   15.8739 C   0  0  1  0  0  0  0  0  0  0  0  0
   67.2916   51.9386   15.0894 C   0  0  0  0  0  0  0  0  0  0  0  0
   69.9396   57.6851   14.7868 O   0  0  0  0  0  0  0  0  0  0  0  0
   70.1742   57.8041   17.1881 C   0  0  1  0  0  0  0  0  0  0  0  0
   71.2077   58.4229   18.0247 N   0  0  0  0  0  0  0  0  0  0  0  0
   72.5138   58.5994   17.5463 C   0  0  0  0  0  0  0  0  0  0  0  0
   72.8986   57.9080   16.5805 O   0  0  0  0  0  0  0  0  0  0  0  0
   73.4260   59.5019   18.0767 O   0  0  0  0  0  0  0  0  0  0  0  0
   73.9921   59.4289   19.3487 C   0  0  1  0  0  0  0  0  0  0  0  0
   75.4116   59.9675   19.3931 C   0  0  0  0  0  0  0  0  0  0  0  0
   75.1955   61.2927   19.0219 O   0  0  0  0  0  0  0  0  0  0  0  0
   74.1287   61.7314   19.7601 C   0  0  1  0  0  0  0  0  0  0  0  0
   73.2659   62.5187   18.9990 O   0  0  0  0  0  0  0  0  0  0  0  0
   71.9942   62.3582   19.5676 C   0  0  0  0  0  0  0  0  0  0  0  0
   71.9396   60.8322   19.7127 C   0  0  0  0  0  0  0  0  0  0  0  0
   73.3182   60.5262   20.1891 C   0  0  1  0  0  0  0  0  0  0  0  0
   69.0331   58.7721   16.9952 C   0  0  0  0  0  0  0  0  0  0  0  0
   69.1069   59.0022   19.4082 C   0  0  0  0  0  0  0  0  0  0  0  0
   68.7541   59.6340   20.5647 C   0  0  0  0  0  0  0  0  0  0  0  0
   67.9511   60.7493   20.5290 C   0  0  0  0  0  0  0  0  0  0  0  0
   67.4870   61.2529   19.3452 C   0  0  0  0  0  0  0  0  0  0  0  0
   67.8323   60.6268   18.1515 C   0  0  0  0  0  0  0  0  0  0  0  0
   68.6316   59.5186   18.1968 C   0  0  0  0  0  0  0  0  0  0  0  0
  1  2  1  0
  3  1  1  0
  4  3  2  0
  8  3  1  0
  5  4  1  0
  6  5  2  0
  6  7  1  0
  9  6  1  0
  7  8  2  0
  9 10  2  0
  9 11  2  0
  9 12  1  1
 12 13  1  0
 17 12  1  0
 13 14  1  0
 14 15  1  6
 14 16  1  0
 16 19  1  0
 18 17  1  0
 18 20  1  6
 21 18  1  0
 21 22  1  0
 21 34  1  6
 22 23  1  0
 23 24  2  0
 23 25  1  0
 26 25  1  6
 26 27  1  0
 26 33  1  0
 27 28  1  0
 29 28  1  6
 29 30  1  0
 33 29  1  0
 31 30  1  0
 32 31  1  0
 33 32  1  6
 40 34  1  0
 35 36  2  0
 35 40  1  0
 36 37  1  0
 37 38  2  0
 38 39  1  0
 39 40  2  0
M  END
$$$$
