
     RDKit          3D

 40 43  0  0  0  0  0  0  0  0999 V2000
   71.9146   48.3019   15.5659 C   0  0  0  0  0  0  0  0  0  0  0  0
   71.2867   47.8789   14.4075 O   0  0  0  0  0  0  0  0  0  0  0  0
   71.7484   49.7575   15.7030 C   0  0  0  0  0  0  0  0  0  0  0  0
   72.7763   50.6173   15.3954 C   0  0  0  0  0  0  0  0  0  0  0  0
   72.6351   51.9965   15.5194 C   0  0  0  0  0  0  0  0  0  0  0  0
   71.4442   52.5316   15.9588 C   0  0  0  0  0  0  0  0  0  0  0  0
   70.4230   51.6517   16.2636 C   0  0  0  0  0  0  0  0  0  0  0  0
   70.5520   50.2711   16.1438 C   0  0  0  0  0  0  0  0  0  0  0  0
   71.2269   54.2776   16.1290 S   0  0  1  0  0  6  0  0  0  0  0  0
   70.1816   54.5456   17.2004 O   0  0  0  0  0  0  0  0  0  0  0  0
   72.5045   54.8124   16.6465 O   0  0  0  0  0  0  0  0  0  0  0  0
   70.7640   54.9172   14.6316 N   0  0  0  0  0  0  0  0  0  0  0  0
   70.1312   53.9866   13.7863 C   0  0  0  0  0  0  0  0  0  0  0  0
   69.2675   54.4990   12.6966 C   0  0  1  0  0  0  0  0  0  0  0  0
   69.8448   55.7280   12.0133 C   0  0  0  0  0  0  0  0  0  0  0  0
   68.7025   53.5594   11.7106 C   0  0  0  0  0  0  0  0  0  0  0  0
   70.0496   56.1486   14.7233 C   0  0  0  0  0  0  0  0  0  0  0  0
   70.9320   57.3197   15.0799 C   0  0  1  0  0  0  0  0  0  0  0  0
   68.1650   52.3295   12.3629 C   0  0  0  0  0  0  0  0  0  0  0  0
   70.7353   58.3447   14.1840 O   0  0  0  0  0  0  0  0  0  0  0  0
   70.7421   57.6899   16.5092 C   0  0  1  0  0  0  0  0  0  0  0  0
   71.7150   58.6991   16.9405 N   0  0  0  0  0  0  0  0  0  0  0  0
   72.8404   58.3405   17.6962 C   0  0  0  0  0  0  0  0  0  0  0  0
   72.9160   57.1786   18.1472 O   0  0  0  0  0  0  0  0  0  0  0  0
   73.8944   59.1970   17.9846 O   0  0  0  0  0  0  0  0  0  0  0  0
   74.6821   59.1542   19.1341 C   0  0  1  0  0  0  0  0  0  0  0  0
   76.0083   59.8755   18.9661 C   0  0  0  0  0  0  0  0  0  0  0  0
   75.5656   61.1726   18.7164 O   0  0  0  0  0  0  0  0  0  0  0  0
   74.6006   61.4380   19.6512 C   0  0  1  0  0  0  0  0  0  0  0  0
   73.5247   62.1300   19.0972 O   0  0  0  0  0  0  0  0  0  0  0  0
   72.4045   61.7807   19.8650 C   0  0  0  0  0  0  0  0  0  0  0  0
   72.5678   60.2568   19.9268 C   0  0  0  0  0  0  0  0  0  0  0  0
   74.0365   60.1206   20.1409 C   0  0  1  0  0  0  0  0  0  0  0  0
   69.3430   58.2033   16.7447 C   0  0  0  0  0  0  0  0  0  0  0  0
   68.8853   57.8686   19.1026 C   0  0  0  0  0  0  0  0  0  0  0  0
   68.6350   58.3458   20.3559 C   0  0  0  0  0  0  0  0  0  0  0  0
   68.6003   59.7003   20.5885 C   0  0  0  0  0  0  0  0  0  0  0  0
   68.8132   60.5998   19.5807 C   0  0  0  0  0  0  0  0  0  0  0  0
   69.0703   60.1388   18.2933 C   0  0  0  0  0  0  0  0  0  0  0  0
   69.1034   58.7902   18.0715 C   0  0  0  0  0  0  0  0  0  0  0  0
  1  2  1  0
  3  1  1  0
  4  3  2  0
  8  3  1  0
  5  4  1  0
  6  5  2  0
  6  7  1  0
  9  6  1  0
  7  8  2  0
  9 10  2  0
  9 11  2  0
  9 12  1  6
 12 13  1  0
 17 12  1  0
 13 14  1  0
 14 15  1  6
 14 16  1  0
 16 19  1  0
 18 17  1  0
 18 20  1  6
 21 18  1  0
 21 22  1  0
 21 34  1  6
 22 23  1  0
 23 24  2  0
 23 25  1  0
 26 25  1  6
 26 27  1  0
 26 33  1  0
 27 28  1  0
 29 28  1  6
 29 30  1  0
 33 29  1  0
 31 30  1  0
 32 31  1  0
 33 32  1  6
 40 34  1  0
 35 36  2  0
 35 40  1  0
 36 37  1  0
 37 38  2  0
 38 39  1  0
 39 40  2  0
M  END
$$$$
