
     RDKit          3D

 40 43  0  0  0  0  0  0  0  0999 V2000
   66.3366   50.8631   13.5787 C   0  0  0  0  0  0  0  0  0  0  0  0
   65.8612   51.3827   12.3874 O   0  0  0  0  0  0  0  0  0  0  0  0
   67.1003   51.9011   14.2892 C   0  0  0  0  0  0  0  0  0  0  0  0
   67.9028   51.5794   15.3583 C   0  0  0  0  0  0  0  0  0  0  0  0
   68.6316   52.5492   16.0407 C   0  0  0  0  0  0  0  0  0  0  0  0
   68.5603   53.8683   15.6500 C   0  0  0  0  0  0  0  0  0  0  0  0
   67.7482   54.1722   14.5739 C   0  0  0  0  0  0  0  0  0  0  0  0
   67.0147   53.2117   13.8836 C   0  0  0  0  0  0  0  0  0  0  0  0
   69.4710   55.1280   16.4917 S   0  0  1  0  0  6  0  0  0  0  0  0
   68.5327   56.2751   16.8325 O   0  0  0  0  0  0  0  0  0  0  0  0
   69.9051   54.5447   17.7792 O   0  0  0  0  0  0  0  0  0  0  0  0
   70.7433   55.6365   15.4976 N   0  0  0  0  0  0  0  0  0  0  0  0
   71.5667   54.5882   15.0459 C   0  0  0  0  0  0  0  0  0  0  0  0
   73.0335   54.7268   15.2045 C   0  0  1  0  0  0  0  0  0  0  0  0
   73.4504   54.9867   16.6431 C   0  0  0  0  0  0  0  0  0  0  0  0
   73.9323   53.7523   14.5590 C   0  0  0  0  0  0  0  0  0  0  0  0
   70.3417   56.5108   14.4442 C   0  0  0  0  0  0  0  0  0  0  0  0
   70.7019   57.9532   14.7023 C   0  0  1  0  0  0  0  0  0  0  0  0
   75.2881   53.7520   15.1827 C   0  0  0  0  0  0  0  0  0  0  0  0
   69.9324   58.7769   13.9138 O   0  0  0  0  0  0  0  0  0  0  0  0
   70.6421   58.2449   16.1608 C   0  0  1  0  0  0  0  0  0  0  0  0
   71.8195   58.9944   16.6113 N   0  0  0  0  0  0  0  0  0  0  0  0
   72.4583   58.6780   17.8186 C   0  0  0  0  0  0  0  0  0  0  0  0
   72.1554   57.6142   18.3979 O   0  0  0  0  0  0  0  0  0  0  0  0
   73.4192   59.4741   18.4274 O   0  0  0  0  0  0  0  0  0  0  0  0
   73.9958   59.2378   19.6746 C   0  0  1  0  0  0  0  0  0  0  0  0
   75.4613   59.6334   19.7301 C   0  0  0  0  0  0  0  0  0  0  0  0
   75.3684   61.0003   19.4778 O   0  0  0  0  0  0  0  0  0  0  0  0
   74.3609   61.4727   20.2761 C   0  0  1  0  0  0  0  0  0  0  0  0
   73.5663   62.4012   19.6055 O   0  0  0  0  0  0  0  0  0  0  0  0
   72.2942   62.3136   20.1891 C   0  0  0  0  0  0  0  0  0  0  0  0
   72.0946   60.7929   20.2057 C   0  0  0  0  0  0  0  0  0  0  0  0
   73.4447   60.3172   20.6210 C   0  0  1  0  0  0  0  0  0  0  0  0
   69.3910   59.0179   16.4981 C   0  0  0  0  0  0  0  0  0  0  0  0
   68.1499   60.1298   18.2600 C   0  0  0  0  0  0  0  0  0  0  0  0
   67.8568   60.3333   19.5768 C   0  0  0  0  0  0  0  0  0  0  0  0
   68.4955   59.6029   20.5507 C   0  0  0  0  0  0  0  0  0  0  0  0
   69.4340   58.6608   20.2314 C   0  0  0  0  0  0  0  0  0  0  0  0
   69.7511   58.4343   18.8957 C   0  0  0  0  0  0  0  0  0  0  0  0
   69.1105   59.1649   17.9340 C   0  0  0  0  0  0  0  0  0  0  0  0
  1  2  1  0
  3  1  1  0
  4  3  2  0
  8  3  1  0
  5  4  1  0
  6  5  2  0
  6  7  1  0
  9  6  1  0
  7  8  2  0
  9 10  2  0
  9 11  2  0
  9 12  1  6
 12 13  1  0
 17 12  1  0
 13 14  1  0
 14 15  1  1
 14 16  1  0
 16 19  1  0
 18 17  1  0
 18 20  1  6
 21 18  1  0
 21 22  1  0
 21 34  1  6
 22 23  1  0
 23 24  2  0
 23 25  1  0
 26 25  1  6
 26 27  1  0
 26 33  1  0
 27 28  1  0
 29 28  1  6
 29 30  1  0
 33 29  1  0
 31 30  1  0
 32 31  1  0
 33 32  1  6
 40 34  1  0
 35 36  2  0
 35 40  1  0
 36 37  1  0
 37 38  2  0
 38 39  1  0
 39 40  2  0
M  END
$$$$
