
     RDKit          3D

 40 43  0  0  0  0  0  0  0  0999 V2000
   66.5548   50.7745   13.2486 C   0  0  0  0  0  0  0  0  0  0  0  0
   66.6160   50.9488   11.8771 O   0  0  0  0  0  0  0  0  0  0  0  0
   67.2741   51.8752   13.9091 C   0  0  0  0  0  0  0  0  0  0  0  0
   67.1746   53.1643   13.4416 C   0  0  0  0  0  0  0  0  0  0  0  0
   67.8482   54.2166   14.0551 C   0  0  0  0  0  0  0  0  0  0  0  0
   68.6382   53.9803   15.1587 C   0  0  0  0  0  0  0  0  0  0  0  0
   68.7264   52.6783   15.6135 C   0  0  0  0  0  0  0  0  0  0  0  0
   68.0578   51.6180   15.0088 C   0  0  0  0  0  0  0  0  0  0  0  0
   69.5090   55.2906   15.9647 S   0  0  1  0  0  6  0  0  0  0  0  0
   68.7767   56.5999   15.7160 O   0  0  0  0  0  0  0  0  0  0  0  0
   69.4158   55.0272   17.4167 O   0  0  0  0  0  0  0  0  0  0  0  0
   71.0930   55.3384   15.3697 N   0  0  0  0  0  0  0  0  0  0  0  0
   71.6204   54.0726   15.0525 C   0  0  0  0  0  0  0  0  0  0  0  0
   73.0926   53.9222   14.9761 C   0  0  1  0  0  0  0  0  0  0  0  0
   73.8174   54.6158   16.1182 C   0  0  0  0  0  0  0  0  0  0  0  0
   73.6773   52.5963   14.7033 C   0  0  0  0  0  0  0  0  0  0  0  0
   71.2918   56.2919   14.3272 C   0  0  0  0  0  0  0  0  0  0  0  0
   71.0894   57.7165   14.7816 C   0  0  1  0  0  0  0  0  0  0  0  0
   72.6293   51.5869   14.3717 C   0  0  0  0  0  0  0  0  0  0  0  0
   70.0754   58.2998   14.0579 O   0  0  0  0  0  0  0  0  0  0  0  0
   70.9147   57.7650   16.2591 C   0  0  1  0  0  0  0  0  0  0  0  0
   71.7262   58.8256   16.8653 N   0  0  0  0  0  0  0  0  0  0  0  0
   72.7507   58.5213   17.7729 C   0  0  0  0  0  0  0  0  0  0  0  0
   72.7108   57.4314   18.3808 O   0  0  0  0  0  0  0  0  0  0  0  0
   73.8242   59.3571   18.0500 O   0  0  0  0  0  0  0  0  0  0  0  0
   74.5246   59.4044   19.2545 C   0  0  1  0  0  0  0  0  0  0  0  0
   75.8498   60.1374   19.1365 C   0  0  0  0  0  0  0  0  0  0  0  0
   75.4095   61.4070   18.7687 O   0  0  0  0  0  0  0  0  0  0  0  0
   74.3741   61.7154   19.6104 C   0  0  1  0  0  0  0  0  0  0  0  0
   73.3333   62.3496   18.9337 O   0  0  0  0  0  0  0  0  0  0  0  0
   72.1637   62.0310   19.6389 C   0  0  0  0  0  0  0  0  0  0  0  0
   72.3425   60.5178   19.8144 C   0  0  0  0  0  0  0  0  0  0  0  0
   73.7929   60.4229   20.1443 C   0  0  1  0  0  0  0  0  0  0  0  0
   69.4635   57.9716   16.6169 C   0  0  0  0  0  0  0  0  0  0  0  0
   70.3617   58.7073   18.7460 C   0  0  0  0  0  0  0  0  0  0  0  0
   70.2044   59.1883   20.0129 C   0  0  0  0  0  0  0  0  0  0  0  0
   68.9492   59.4725   20.4963 C   0  0  0  0  0  0  0  0  0  0  0  0
   67.8329   59.2833   19.7293 C   0  0  0  0  0  0  0  0  0  0  0  0
   67.9662   58.7937   18.4337 C   0  0  0  0  0  0  0  0  0  0  0  0
   69.2184   58.5143   17.9613 C   0  0  0  0  0  0  0  0  0  0  0  0
  1  2  1  0
  3  1  1  0
  4  3  2  0
  8  3  1  0
  5  4  1  0
  6  5  2  0
  6  7  1  0
  9  6  1  0
  7  8  2  0
  9 10  2  0
  9 11  2  0
  9 12  1  6
 12 13  1  0
 17 12  1  0
 13 14  1  0
 14 15  1  1
 14 16  1  0
 16 19  1  0
 18 17  1  0
 18 20  1  6
 21 18  1  0
 21 22  1  0
 21 34  1  6
 22 23  1  0
 23 24  2  0
 23 25  1  0
 26 25  1  6
 26 27  1  0
 26 33  1  0
 27 28  1  0
 29 28  1  6
 29 30  1  0
 33 29  1  0
 31 30  1  0
 32 31  1  0
 33 32  1  6
 40 34  1  0
 35 36  2  0
 35 40  1  0
 36 37  1  0
 37 38  2  0
 38 39  1  0
 39 40  2  0
M  END
$$$$
