
     RDKit          3D

 40 43  0  0  0  0  0  0  0  0999 V2000
   64.8057   52.5874   13.1349 C   0  0  0  0  0  0  0  0  0  0  0  0
   63.7152   53.0920   13.8215 O   0  0  0  0  0  0  0  0  0  0  0  0
   66.0365   52.9192   13.8699 C   0  0  0  0  0  0  0  0  0  0  0  0
   66.2244   52.4893   15.1624 C   0  0  0  0  0  0  0  0  0  0  0  0
   67.3829   52.7944   15.8712 C   0  0  0  0  0  0  0  0  0  0  0  0
   68.3763   53.5438   15.2802 C   0  0  0  0  0  0  0  0  0  0  0  0
   68.1692   53.9673   13.9810 C   0  0  0  0  0  0  0  0  0  0  0  0
   67.0155   53.6687   13.2621 C   0  0  0  0  0  0  0  0  0  0  0  0
   69.8613   53.9515   16.1481 S   0  0  1  0  0  6  0  0  0  0  0  0
   69.5103   54.7959   17.3631 O   0  0  0  0  0  0  0  0  0  0  0  0
   70.4093   52.6794   16.6656 O   0  0  0  0  0  0  0  0  0  0  0  0
   70.8991   54.7749   15.0944 N   0  0  0  0  0  0  0  0  0  0  0  0
   71.6270   53.9295   14.2361 C   0  0  0  0  0  0  0  0  0  0  0  0
   73.0049   53.5482   14.6257 C   0  0  1  0  0  0  0  0  0  0  0  0
   73.7282   52.7614   13.5446 C   0  0  0  0  0  0  0  0  0  0  0  0
   73.8947   54.5529   15.2365 C   0  0  0  0  0  0  0  0  0  0  0  0
   70.2814   55.8586   14.4020 C   0  0  0  0  0  0  0  0  0  0  0  0
   70.9889   57.1749   14.6113 C   0  0  1  0  0  0  0  0  0  0  0  0
   75.0980   54.8125   14.3929 C   0  0  0  0  0  0  0  0  0  0  0  0
   70.6577   58.0505   13.6035 O   0  0  0  0  0  0  0  0  0  0  0  0
   70.7387   57.6797   15.9891 C   0  0  1  0  0  0  0  0  0  0  0  0
   71.6279   58.7962   16.3261 N   0  0  0  0  0  0  0  0  0  0  0  0
   72.3275   58.8208   17.5410 C   0  0  0  0  0  0  0  0  0  0  0  0
   71.9827   58.0361   18.4489 O   0  0  0  0  0  0  0  0  0  0  0  0
   73.3934   59.6680   17.8130 O   0  0  0  0  0  0  0  0  0  0  0  0
   74.1610   59.6566   18.9768 C   0  0  1  0  0  0  0  0  0  0  0  0
   75.4218   60.4954   18.8585 C   0  0  0  0  0  0  0  0  0  0  0  0
   74.8721   61.7565   18.6393 O   0  0  0  0  0  0  0  0  0  0  0  0
   73.8709   61.9069   19.5616 C   0  0  1  0  0  0  0  0  0  0  0  0
   72.7489   62.5205   19.0067 O   0  0  0  0  0  0  0  0  0  0  0  0
   71.6498   62.0507   19.7401 C   0  0  0  0  0  0  0  0  0  0  0  0
   71.9445   60.5456   19.7588 C   0  0  0  0  0  0  0  0  0  0  0  0
   73.4154   60.5304   19.9990 C   0  0  1  0  0  0  0  0  0  0  0  0
   69.3018   58.1130   16.1444 C   0  0  0  0  0  0  0  0  0  0  0  0
   67.5874   58.9505   17.6412 C   0  0  0  0  0  0  0  0  0  0  0  0
   67.1564   59.3326   18.8779 C   0  0  0  0  0  0  0  0  0  0  0  0
   68.0000   59.2569   19.9607 C   0  0  0  0  0  0  0  0  0  0  0  0
   69.2829   58.8013   19.8313 C   0  0  0  0  0  0  0  0  0  0  0  0
   69.7470   58.4055   18.5806 C   0  0  0  0  0  0  0  0  0  0  0  0
   68.9008   58.4838   17.5096 C   0  0  0  0  0  0  0  0  0  0  0  0
  1  2  1  0
  3  1  1  0
  4  3  2  0
  8  3  1  0
  5  4  1  0
  6  5  2  0
  6  7  1  0
  9  6  1  0
  7  8  2  0
  9 10  2  0
  9 11  2  0
  9 12  1  6
 12 13  1  0
 17 12  1  0
 13 14  1  0
 14 15  1  6
 14 16  1  0
 16 19  1  0
 18 17  1  0
 18 20  1  6
 21 18  1  0
 21 22  1  0
 21 34  1  6
 22 23  1  0
 23 24  2  0
 23 25  1  0
 26 25  1  6
 26 27  1  0
 26 33  1  0
 27 28  1  0
 29 28  1  6
 29 30  1  0
 33 29  1  0
 31 30  1  0
 32 31  1  0
 33 32  1  6
 40 34  1  0
 35 36  2  0
 35 40  1  0
 36 37  1  0
 37 38  2  0
 38 39  1  0
 39 40  2  0
M  END
$$$$
