
     RDKit          3D

 40 43  0  0  0  0  0  0  0  0999 V2000
   66.6218   50.9259   12.6537 C   0  0  0  0  0  0  0  0  0  0  0  0
   65.3498   51.4097   12.4026 O   0  0  0  0  0  0  0  0  0  0  0  0
   67.3083   51.8313   13.5886 C   0  0  0  0  0  0  0  0  0  0  0  0
   67.0932   53.1886   13.5431 C   0  0  0  0  0  0  0  0  0  0  0  0
   67.7344   54.0584   14.4204 C   0  0  0  0  0  0  0  0  0  0  0  0
   68.6088   53.5662   15.3643 C   0  0  0  0  0  0  0  0  0  0  0  0
   68.8127   52.1996   15.3943 C   0  0  0  0  0  0  0  0  0  0  0  0
   68.1776   51.3199   14.5226 C   0  0  0  0  0  0  0  0  0  0  0  0
   69.4418   54.6392   16.4954 S   0  0  1  0  0  6  0  0  0  0  0  0
   68.4445   55.6416   17.0547 O   0  0  0  0  0  0  0  0  0  0  0  0
   69.8739   53.7986   17.6325 O   0  0  0  0  0  0  0  0  0  0  0  0
   70.7109   55.4089   15.6815 N   0  0  0  0  0  0  0  0  0  0  0  0
   71.5499   54.5284   14.9732 C   0  0  0  0  0  0  0  0  0  0  0  0
   73.0053   54.8067   14.9523 C   0  0  1  0  0  0  0  0  0  0  0  0
   73.5942   54.9775   16.3433 C   0  0  0  0  0  0  0  0  0  0  0  0
   73.8908   53.9956   14.0966 C   0  0  0  0  0  0  0  0  0  0  0  0
   70.3016   56.5271   14.8958 C   0  0  0  0  0  0  0  0  0  0  0  0
   71.0618   57.7893   15.2212 C   0  0  1  0  0  0  0  0  0  0  0  0
   73.5754   52.5403   14.1957 C   0  0  0  0  0  0  0  0  0  0  0  0
   70.6150   58.8227   14.4308 O   0  0  0  0  0  0  0  0  0  0  0  0
   71.0164   58.0537   16.6854 C   0  0  1  0  0  0  0  0  0  0  0  0
   72.3271   58.4608   17.2025 N   0  0  0  0  0  0  0  0  0  0  0  0
   72.4953   58.8083   18.5504 C   0  0  0  0  0  0  0  0  0  0  0  0
   71.7931   58.2370   19.4104 O   0  0  0  0  0  0  0  0  0  0  0  0
   73.4006   59.7571   19.0067 O   0  0  0  0  0  0  0  0  0  0  0  0
   74.3484   59.5565   20.0091 C   0  0  1  0  0  0  0  0  0  0  0  0
   75.7396   60.0122   19.6036 C   0  0  0  0  0  0  0  0  0  0  0  0
   75.5150   61.3717   19.3984 O   0  0  0  0  0  0  0  0  0  0  0  0
   74.7899   61.8101   20.4742 C   0  0  1  0  0  0  0  0  0  0  0  0
   73.7869   62.6989   20.0902 O   0  0  0  0  0  0  0  0  0  0  0  0
   72.7668   62.5648   21.0430 C   0  0  0  0  0  0  0  0  0  0  0  0
   72.6463   61.0374   21.1156 C   0  0  0  0  0  0  0  0  0  0  0  0
   74.0772   60.6214   21.0847 C   0  0  1  0  0  0  0  0  0  0  0  0
   69.9949   59.1179   17.0027 C   0  0  0  0  0  0  0  0  0  0  0  0
   69.3577   58.2472   19.1744 C   0  0  0  0  0  0  0  0  0  0  0  0
   69.1067   58.4090   20.5056 C   0  0  0  0  0  0  0  0  0  0  0  0
   69.2546   59.6424   21.0946 C   0  0  0  0  0  0  0  0  0  0  0  0
   69.6533   60.7321   20.3709 C   0  0  0  0  0  0  0  0  0  0  0  0
   69.9154   60.5935   19.0113 C   0  0  0  0  0  0  0  0  0  0  0  0
   69.7661   59.3632   18.4343 C   0  0  0  0  0  0  0  0  0  0  0  0
  1  2  1  0
  3  1  1  0
  4  3  2  0
  8  3  1  0
  5  4  1  0
  6  5  2  0
  6  7  1  0
  9  6  1  0
  7  8  2  0
  9 10  2  0
  9 11  2  0
  9 12  1  6
 12 13  1  0
 17 12  1  0
 13 14  1  0
 14 15  1  1
 14 16  1  0
 16 19  1  0
 18 17  1  0
 18 20  1  6
 21 18  1  0
 21 22  1  0
 21 34  1  6
 22 23  1  0
 23 24  2  0
 23 25  1  0
 26 25  1  6
 26 27  1  0
 26 33  1  0
 27 28  1  0
 29 28  1  6
 29 30  1  0
 33 29  1  0
 31 30  1  0
 32 31  1  0
 33 32  1  6
 40 34  1  0
 35 36  2  0
 35 40  1  0
 36 37  1  0
 37 38  2  0
 38 39  1  0
 39 40  2  0
M  END
$$$$
