
     RDKit          3D

 40 43  0  0  0  0  0  0  0  0999 V2000
   65.8718   50.5794   13.7587 C   0  0  0  0  0  0  0  0  0  0  0  0
   65.5346   50.7989   12.4345 O   0  0  0  0  0  0  0  0  0  0  0  0
   66.6907   51.7022   14.2423 C   0  0  0  0  0  0  0  0  0  0  0  0
   66.6041   52.9429   13.6559 C   0  0  0  0  0  0  0  0  0  0  0  0
   67.3715   54.0152   14.1015 C   0  0  0  0  0  0  0  0  0  0  0  0
   68.2441   53.8490   15.1545 C   0  0  0  0  0  0  0  0  0  0  0  0
   68.3177   52.5949   15.7305 C   0  0  0  0  0  0  0  0  0  0  0  0
   67.5558   51.5151   15.2940 C   0  0  0  0  0  0  0  0  0  0  0  0
   69.2351   55.1868   15.7486 S   0  0  1  0  0  6  0  0  0  0  0  0
   68.6900   56.4931   15.1930 O   0  0  0  0  0  0  0  0  0  0  0  0
   69.0377   55.2390   17.2130 O   0  0  0  0  0  0  0  0  0  0  0  0
   70.8395   54.9280   15.2747 N   0  0  0  0  0  0  0  0  0  0  0  0
   71.0349   54.9677   13.8814 C   0  0  0  0  0  0  0  0  0  0  0  0
   72.2528   54.3345   13.3230 C   0  0  1  0  0  0  0  0  0  0  0  0
   72.4942   52.9359   13.8674 C   0  0  0  0  0  0  0  0  0  0  0  0
   72.5033   54.3897   11.8709 C   0  0  0  0  0  0  0  0  0  0  0  0
   71.7885   55.7227   15.9841 C   0  0  0  0  0  0  0  0  0  0  0  0
   71.7915   57.1683   15.5513 C   0  0  1  0  0  0  0  0  0  0  0  0
   73.7094   53.5992   11.4869 C   0  0  0  0  0  0  0  0  0  0  0  0
   71.1469   57.2972   14.3430 O   0  0  0  0  0  0  0  0  0  0  0  0
   71.2611   58.0323   16.6413 C   0  0  1  0  0  0  0  0  0  0  0  0
   71.9661   59.3168   16.7050 N   0  0  0  0  0  0  0  0  0  0  0  0
   73.0073   59.5243   17.6207 C   0  0  0  0  0  0  0  0  0  0  0  0
   73.9446   58.7004   17.6618 O   0  0  0  0  0  0  0  0  0  0  0  0
   73.0737   60.5969   18.5000 O   0  0  0  0  0  0  0  0  0  0  0  0
   74.1806   61.4234   18.6879 C   0  0  1  0  0  0  0  0  0  0  0  0
   73.8628   62.6523   19.5222 C   0  0  0  0  0  0  0  0  0  0  0  0
   73.4796   62.0565   20.7218 O   0  0  0  0  0  0  0  0  0  0  0  0
   74.4209   61.1004   20.9961 C   0  0  1  0  0  0  0  0  0  0  0  0
   73.8397   59.9344   21.4920 O   0  0  0  0  0  0  0  0  0  0  0  0
   74.6972   58.8882   21.1223 C   0  0  0  0  0  0  0  0  0  0  0  0
   74.9352   59.2259   19.6451 C   0  0  0  0  0  0  0  0  0  0  0  0
   75.0930   60.7071   19.6972 C   0  0  1  0  0  0  0  0  0  0  0  0
   69.7834   58.2750   16.4568 C   0  0  0  0  0  0  0  0  0  0  0  0
   68.9390   60.2650   17.5558 C   0  0  0  0  0  0  0  0  0  0  0  0
   68.3282   60.8893   18.6039 C   0  0  0  0  0  0  0  0  0  0  0  0
   67.8820   60.1609   19.6809 C   0  0  0  0  0  0  0  0  0  0  0  0
   68.0358   58.8030   19.7331 C   0  0  0  0  0  0  0  0  0  0  0  0
   68.6557   58.1422   18.6770 C   0  0  0  0  0  0  0  0  0  0  0  0
   69.0958   58.8748   17.6098 C   0  0  0  0  0  0  0  0  0  0  0  0
  1  2  1  0
  3  1  1  0
  4  3  2  0
  8  3  1  0
  5  4  1  0
  6  5  2  0
  6  7  1  0
  9  6  1  0
  7  8  2  0
  9 10  2  0
  9 11  2  0
  9 12  1  1
 12 13  1  0
 17 12  1  0
 13 14  1  0
 14 15  1  6
 14 16  1  0
 16 19  1  0
 18 17  1  0
 18 20  1  6
 21 18  1  0
 21 22  1  0
 21 34  1  6
 22 23  1  0
 23 24  2  0
 23 25  1  0
 26 25  1  1
 26 27  1  0
 26 33  1  0
 27 28  1  0
 29 28  1  6
 29 30  1  0
 33 29  1  0
 31 30  1  0
 32 31  1  0
 33 32  1  6
 40 34  1  0
 35 36  2  0
 35 40  1  0
 36 37  1  0
 37 38  2  0
 38 39  1  0
 39 40  2  0
M  END
$$$$
