
     RDKit          3D

 40 43  0  0  0  0  0  0  0  0999 V2000
   66.1262   50.8202   12.6981 C   0  0  0  0  0  0  0  0  0  0  0  0
   65.0234   51.4655   12.1666 O   0  0  0  0  0  0  0  0  0  0  0  0
   66.8615   51.7536   13.5661 C   0  0  0  0  0  0  0  0  0  0  0  0
   67.7753   51.2926   14.4842 C   0  0  0  0  0  0  0  0  0  0  0  0
   68.4792   52.1622   15.3123 C   0  0  0  0  0  0  0  0  0  0  0  0
   68.2691   53.5208   15.2242 C   0  0  0  0  0  0  0  0  0  0  0  0
   67.3466   53.9651   14.2960 C   0  0  0  0  0  0  0  0  0  0  0  0
   66.6367   53.1057   13.4627 C   0  0  0  0  0  0  0  0  0  0  0  0
   69.1438   54.6563   16.2587 S   0  0  1  0  0  6  0  0  0  0  0  0
   68.2077   55.7863   16.6580 O   0  0  0  0  0  0  0  0  0  0  0  0
   69.4733   53.9259   17.5013 O   0  0  0  0  0  0  0  0  0  0  0  0
   70.4936   55.2325   15.4152 N   0  0  0  0  0  0  0  0  0  0  0  0
   71.2023   54.2322   14.7236 C   0  0  0  0  0  0  0  0  0  0  0  0
   72.6668   54.3903   14.5627 C   0  0  1  0  0  0  0  0  0  0  0  0
   73.3546   54.8538   15.8367 C   0  0  0  0  0  0  0  0  0  0  0  0
   73.4456   53.3321   13.8935 C   0  0  0  0  0  0  0  0  0  0  0  0
   70.2256   56.3749   14.6037 C   0  0  0  0  0  0  0  0  0  0  0  0
   71.0531   57.5782   14.9837 C   0  0  1  0  0  0  0  0  0  0  0  0
   74.7940   53.8169   13.4764 C   0  0  0  0  0  0  0  0  0  0  0  0
   70.8935   58.5719   14.0461 O   0  0  0  0  0  0  0  0  0  0  0  0
   70.7574   57.9837   16.3851 C   0  0  1  0  0  0  0  0  0  0  0  0
   71.6648   59.0399   16.8456 N   0  0  0  0  0  0  0  0  0  0  0  0
   72.4758   58.8537   17.9741 C   0  0  0  0  0  0  0  0  0  0  0  0
   72.4838   57.7359   18.5305 O   0  0  0  0  0  0  0  0  0  0  0  0
   73.2842   59.8376   18.5275 O   0  0  0  0  0  0  0  0  0  0  0  0
   74.1777   59.6540   19.5819 C   0  0  1  0  0  0  0  0  0  0  0  0
   75.5646   60.1943   19.2790 C   0  0  0  0  0  0  0  0  0  0  0  0
   75.2803   61.5462   19.0997 O   0  0  0  0  0  0  0  0  0  0  0  0
   74.4674   61.9111   20.1397 C   0  0  1  0  0  0  0  0  0  0  0  0
   73.4437   62.7586   19.7189 O   0  0  0  0  0  0  0  0  0  0  0  0
   72.3753   62.5408   20.6007 C   0  0  0  0  0  0  0  0  0  0  0  0
   72.3331   61.0077   20.6209 C   0  0  0  0  0  0  0  0  0  0  0  0
   73.7834   60.6678   20.6687 C   0  0  1  0  0  0  0  0  0  0  0  0
   69.3290   58.4527   16.5133 C   0  0  0  0  0  0  0  0  0  0  0  0
   68.5503   58.0679   18.7774 C   0  0  0  0  0  0  0  0  0  0  0  0
   68.1767   58.5165   20.0105 C   0  0  0  0  0  0  0  0  0  0  0  0
   68.2102   59.8601   20.2994 C   0  0  0  0  0  0  0  0  0  0  0  0
   68.6145   60.7770   19.3688 C   0  0  0  0  0  0  0  0  0  0  0  0
   69.0005   60.3452   18.1036 C   0  0  0  0  0  0  0  0  0  0  0  0
   68.9645   59.0072   17.8255 C   0  0  0  0  0  0  0  0  0  0  0  0
  1  2  1  0
  3  1  1  0
  4  3  2  0
  8  3  1  0
  5  4  1  0
  6  5  2  0
  6  7  1  0
  9  6  1  0
  7  8  2  0
  9 10  2  0
  9 11  2  0
  9 12  1  6
 12 13  1  0
 17 12  1  0
 13 14  1  0
 14 15  1  1
 14 16  1  0
 16 19  1  0
 18 17  1  0
 18 20  1  6
 21 18  1  0
 21 22  1  0
 21 34  1  6
 22 23  1  0
 23 24  2  0
 23 25  1  0
 26 25  1  6
 26 27  1  0
 26 33  1  0
 27 28  1  0
 29 28  1  6
 29 30  1  0
 33 29  1  0
 31 30  1  0
 32 31  1  0
 33 32  1  6
 40 34  1  0
 35 36  2  0
 35 40  1  0
 36 37  1  0
 37 38  2  0
 38 39  1  0
 39 40  2  0
M  END
$$$$
