
     RDKit          3D

 40 43  0  0  0  0  0  0  0  0999 V2000
   72.7971   59.6989   22.8204 C   0  0  0  0  0  0  0  0  0  0  0  0
   73.8051   58.7622   22.9674 O   0  0  0  0  0  0  0  0  0  0  0  0
   71.8377   59.2233   21.8111 C   0  0  0  0  0  0  0  0  0  0  0  0
   71.9797   57.9851   21.2305 C   0  0  0  0  0  0  0  0  0  0  0  0
   71.0810   57.5204   20.2747 C   0  0  0  0  0  0  0  0  0  0  0  0
   70.0170   58.3056   19.8885 C   0  0  0  0  0  0  0  0  0  0  0  0
   69.8911   59.5471   20.4826 C   0  0  0  0  0  0  0  0  0  0  0  0
   70.7831   60.0227   21.4392 C   0  0  0  0  0  0  0  0  0  0  0  0
   68.8548   57.7501   18.6778 S   0  0  1  0  0  6  0  0  0  0  0  0
   69.0055   56.2477   18.4978 O   0  0  0  0  0  0  0  0  0  0  0  0
   67.5104   57.9709   19.2524 O   0  0  0  0  0  0  0  0  0  0  0  0
   69.1353   58.5835   17.2313 N   0  0  0  0  0  0  0  0  0  0  0  0
   70.1386   59.5661   17.3258 C   0  0  0  0  0  0  0  0  0  0  0  0
   69.8907   60.8876   16.7029 C   0  0  1  0  0  0  0  0  0  0  0  0
   68.4528   61.3549   16.8609 C   0  0  0  0  0  0  0  0  0  0  0  0
   70.8373   61.9936   16.9373 C   0  0  0  0  0  0  0  0  0  0  0  0
   69.3044   57.7348   16.0971 C   0  0  0  0  0  0  0  0  0  0  0  0
   70.7480   57.5731   15.6887 C   0  0  1  0  0  0  0  0  0  0  0  0
   70.5194   62.7379   18.1911 C   0  0  0  0  0  0  0  0  0  0  0  0
   71.5375   58.4447   16.4023 O   0  0  0  0  0  0  0  0  0  0  0  0
   71.1509   56.1429   15.7793 C   0  0  1  0  0  0  0  0  0  0  0  0
   70.5285   55.3377   14.7233 N   0  0  0  0  0  0  0  0  0  0  0  0
   69.6524   54.2888   15.0368 C   0  0  0  0  0  0  0  0  0  0  0  0
   69.5301   53.9445   16.2307 O   0  0  0  0  0  0  0  0  0  0  0  0
   68.8983   53.5932   14.1012 O   0  0  0  0  0  0  0  0  0  0  0  0
   68.0730   52.5032   14.3742 C   0  0  1  0  0  0  0  0  0  0  0  0
   66.8511   52.4499   13.4735 C   0  0  0  0  0  0  0  0  0  0  0  0
   67.4567   52.3132   12.2264 O   0  0  0  0  0  0  0  0  0  0  0  0
   68.4148   51.3447   12.3665 C   0  0  1  0  0  0  0  0  0  0  0  0
   69.5850   51.6771   11.6857 O   0  0  0  0  0  0  0  0  0  0  0  0
   70.6278   51.0477   12.3806 C   0  0  0  0  0  0  0  0  0  0  0  0
   70.2780   51.4309   13.8240 C   0  0  0  0  0  0  0  0  0  0  0  0
   68.7973   51.2610   13.8294 C   0  0  1  0  0  0  0  0  0  0  0  0
   72.6515   56.0067   15.7011 C   0  0  0  0  0  0  0  0  0  0  0  0
   73.4703   54.0942   14.4549 C   0  0  0  0  0  0  0  0  0  0  0  0
   73.9263   52.8100   14.3902 C   0  0  0  0  0  0  0  0  0  0  0  0
   74.0723   52.0669   15.5375 C   0  0  0  0  0  0  0  0  0  0  0  0
   73.7678   52.5877   16.7648 C   0  0  0  0  0  0  0  0  0  0  0  0
   73.3007   53.8951   16.8580 C   0  0  0  0  0  0  0  0  0  0  0  0
   73.1591   54.6267   15.7118 C   0  0  0  0  0  0  0  0  0  0  0  0
  1  2  1  0
  3  1  1  0
  4  3  2  0
  8  3  1  0
  5  4  1  0
  6  5  2  0
  6  7  1  0
  9  6  1  0
  7  8  2  0
  9 10  2  0
  9 11  2  0
  9 12  1  6
 12 13  1  0
 17 12  1  0
 13 14  1  0
 14 15  1  1
 14 16  1  0
 16 19  1  0
 18 17  1  0
 18 20  1  1
 21 18  1  0
 21 22  1  0
 21 34  1  6
 22 23  1  0
 23 24  2  0
 23 25  1  0
 26 25  1  6
 26 27  1  0
 26 33  1  0
 27 28  1  0
 29 28  1  1
 29 30  1  0
 33 29  1  0
 31 30  1  0
 32 31  1  0
 33 32  1  6
 40 34  1  0
 35 36  2  0
 35 40  1  0
 36 37  1  0
 37 38  2  0
 38 39  1  0
 39 40  2  0
M  END
$$$$
