
     RDKit          3D

 72 71  0  0  0  0  0  0  0  0999 V2000
   21.9389   22.3191   15.3414 N   0  0  0  0  0  4  0  0  0  0  0  0
   20.5771   22.1204   14.7317 C   0  0  2  0  0  0  0  0  0  0  0  0
   20.1482   20.6378   14.7419 C   0  0  0  0  0  0  0  0  0  0  0  0
   19.1960   20.2732   14.0588 O   0  0  0  0  0  0  0  0  0  0  0  0
   20.5489   22.7149   13.3075 C   0  0  0  0  0  0  0  0  0  0  0  0
   19.1360   22.6265   12.6925 C   0  0  0  0  0  0  0  0  0  0  0  0
   19.0772   22.5379   11.1609 C   0  0  0  0  0  0  0  0  0  0  0  0
   17.9040   23.2976   10.5415 C   0  0  0  0  0  0  0  0  0  0  0  0
   17.5991   24.4901   11.3708 N   0  0  0  0  0  4  0  0  0  0  0  0
   20.8981   19.7716   15.5108 N   0  0  0  0  0  0  0  0  0  0  0  0
   20.2873   18.8033   16.4517 C   0  0  2  0  0  0  0  0  0  0  0  0
   19.2019   17.9685   15.7467 C   0  0  0  0  0  0  0  0  0  0  0  0
   18.7018   16.9792   16.2766 O   0  0  0  0  0  0  0  0  0  0  0  0
   19.7800   19.3752   17.7772 C   0  0  0  0  0  0  0  0  0  0  0  0
   20.5136   18.7900   18.9876 C   0  0  0  0  0  0  0  0  0  0  0  0
   21.9231   18.3709   18.6389 C   0  0  0  0  0  0  0  0  0  0  0  0
   22.7007   17.8561   19.4333 O   0  0  0  0  0  0  0  0  0  0  0  0
   22.3119   18.6858   17.3706 N   0  0  0  0  0  0  0  0  0  0  0  0
   18.8451   18.3340   14.4764 N   0  0  0  0  0  0  0  0  0  0  0  0
   17.8102   17.6016   13.7151 C   0  0  2  0  0  0  0  0  0  0  0  0
   17.3231   16.2630   14.3425 C   0  0  0  0  0  0  0  0  0  0  0  0
   17.7794   15.8132   15.3910 O   0  0  0  0  0  0  0  0  0  0  0  0
   18.2606   17.4006   12.2479 C   0  0  2  0  0  0  0  0  0  0  0  0
   19.1275   16.2512   12.1577 O   0  0  0  0  0  0  0  0  0  0  0  0
   19.0229   18.6263   11.7452 C   0  0  0  0  0  0  0  0  0  0  0  0
   16.4708   15.5138   13.5530 N   0  0  0  0  0  0  0  0  0  0  0  0
   15.9246   14.2204   13.9869 C   0  0  2  0  0  0  0  0  0  0  0  0
   15.0575   13.5391   12.8859 C   0  0  0  0  0  0  0  0  0  0  0  0
   14.2275   14.1606   12.2243 O   0  0  0  0  0  0  0  0  0  0  0  0
   15.0643   14.4298   15.2279 C   0  0  0  0  0  0  0  0  0  0  0  0
   15.3940   12.2300   12.6252 N   0  0  0  0  0  0  0  0  0  0  0  0
   14.7539   11.4065   11.5945 C   0  0  2  0  0  0  0  0  0  0  0  0
   13.2423   11.3256   11.9129 C   0  0  0  0  0  0  0  0  0  0  0  0
   12.8082   10.9516   13.0013 O   0  0  0  0  0  0  0  0  0  0  0  0
   15.4608   10.0435   11.6092 C   0  0  0  0  0  0  0  0  0  0  0  0
   16.8427    9.9817   10.9624 C   0  0  0  0  0  0  0  0  0  0  0  0
   16.7895    9.2152    9.6375 C   0  0  0  0  0  0  0  0  0  0  0  0
   18.0931    9.2582    8.9936 N   0  0  0  0  0  0  0  0  0  0  0  0
   18.3712    8.6642    7.8134 C   0  0  0  0  0  0  0  0  0  0  0  0
   19.4818    8.7182    7.1661 N   0  0  0  0  0  0  0  0  0  0  0  0
   17.3056    7.9796    7.3567 N   0  0  0  0  0  0  0  0  0  0  0  0
   12.4161   11.7655   10.9000 N   0  0  0  0  0  0  0  0  0  0  0  0
   10.9605   11.7808   11.0282 C   0  0  1  0  0  0  0  0  0  0  0  0
   10.5013   13.0014   11.8380 C   0  0  0  0  0  0  0  0  0  0  0  0
    8.9807   12.9963   12.0532 C   0  0  0  0  0  0  0  0  0  0  0  0
    8.5053   14.2029   12.8593 C   0  0  0  0  0  0  0  0  0  0  0  0
    6.9842   14.3410   13.0067 C   0  0  0  0  0  0  0  0  0  0  0  0
    6.4489   15.6656   13.5783 N   0  0  2  0  0  4  0  0  0  0  0  0
   10.3761   11.8132    9.6049 C   0  0  0  0  0  0  0  0  0  0  0  0
   10.3257   12.8488    8.9467 O   0  0  0  0  0  0  0  0  0  0  0  0
    6.7395   15.6501   15.0893 C   0  0  0  0  0  0  0  0  0  0  0  0
    4.9447   15.8053   13.3923 C   0  0  0  0  0  0  0  0  0  0  0  0
    7.1523   16.8899   12.9948 C   0  0  0  0  0  0  0  0  0  0  0  0
    9.9394   10.5922    9.1394 N   0  0  0  0  0  0  0  0  0  0  0  0
    9.4582   10.4311    7.7552 C   0  0  2  0  0  0  0  0  0  0  0  0
    8.0250    9.8739    7.6675 C   0  0  0  0  0  0  0  0  0  0  0  0
    7.3967    9.4767    8.6443 O   0  0  0  0  0  0  0  0  0  0  0  0
   10.4277    9.6531    6.8612 C   0  0  0  0  0  0  0  0  0  0  0  0
   10.6210    8.3364    7.3961 O   0  0  0  0  0  0  0  0  0  0  0  0
    7.5763    9.6946    6.3734 N   0  0  0  0  0  0  0  0  0  0  0  0
    6.1464    9.6011    6.0523 C   0  0  2  0  0  0  0  0  0  0  0  0
    6.0008    9.3769    4.5331 C   0  0  0  0  0  0  0  0  0  0  0  0
    6.8184    9.7735    3.7034 O   0  0  0  0  0  0  0  0  0  0  0  0
    5.3580   10.8604    6.4633 C   0  0  2  0  0  0  0  0  0  0  0  0
    6.1445   12.0384    6.2130 O   0  0  0  0  0  0  0  0  0  0  0  0
    4.9555   10.8723    7.9332 C   0  0  0  0  0  0  0  0  0  0  0  0
    4.7999    8.7948    4.1709 N   0  0  0  0  0  0  0  0  0  0  0  0
    4.5410    8.4575    2.7819 C   0  0  0  0  0  0  0  0  0  0  0  0
    4.2488    6.9732    2.6008 C   0  0  0  0  0  0  0  0  0  0  0  0
    4.9831    6.1501    2.0768 O   0  0  0  0  0  0  0  0  0  0  0  0
    3.0192    6.5873    3.0196 O   0  0  0  0  0  0  0  0  0  0  0  0
   20.1227    9.2781    7.7281 H   0  0  0  0  0  0  0  0  0  0  0  0
  2  1  1  6
  2  3  1  0
  2  5  1  0
  3  4  2  0
  3 10  1  0
  5  6  1  0
  6  7  1  0
  7  8  1  0
  8  9  1  0
 10 11  1  0
 11 12  1  0
 11 14  1  1
 12 13  2  0
 12 19  1  0
 14 15  1  0
 15 16  1  0
 16 17  2  0
 16 18  1  0
 20 19  1  1
 20 21  1  0
 20 23  1  0
 21 22  2  0
 21 26  1  0
 23 24  1  0
 23 25  1  1
 26 27  1  0
 27 28  1  0
 27 30  1  1
 28 29  2  0
 28 31  1  0
 31 32  1  0
 32 33  1  0
 32 35  1  1
 33 34  2  0
 33 42  1  0
 35 36  1  0
 36 37  1  0
 37 38  1  0
 38 39  1  0
 39 40  2  0
 39 41  1  0
 42 43  1  0
 43 44  1  1
 43 49  1  0
 44 45  1  0
 45 46  1  0
 46 47  1  0
 47 48  1  0
 48 51  1  1
 48 52  1  0
 48 53  1  0
 49 50  2  0
 49 54  1  0
 54 55  1  0
 55 56  1  0
 55 58  1  6
 56 57  2  0
 56 60  1  0
 58 59  1  0
 61 60  1  6
 61 62  1  0
 61 64  1  0
 62 63  2  0
 62 67  1  0
 64 65  1  0
 64 66  1  1
 67 68  1  0
 68 69  1  0
 69 70  2  0
 69 71  1  0
 40 72  1  0
M  CHG  3   1   1   9   1  48   1
M  END
$$$$
