
     RDKit          3D

 72 71  0  0  0  0  0  0  0  0999 V2000
   23.8681   20.4080   17.1473 N   0  0  0  0  0  4  0  0  0  0  0  0
   23.5482   21.5797   16.2581 C   0  0  2  0  0  0  0  0  0  0  0  0
   22.3420   21.2966   15.3378 C   0  0  0  0  0  0  0  0  0  0  0  0
   22.0989   22.0508   14.4006 O   0  0  0  0  0  0  0  0  0  0  0  0
   24.8012   21.9832   15.4521 C   0  0  0  0  0  0  0  0  0  0  0  0
   25.7170   22.9165   16.2721 C   0  0  0  0  0  0  0  0  0  0  0  0
   25.0025   23.9678   17.1332 C   0  0  0  0  0  0  0  0  0  0  0  0
   25.8910   25.1443   17.5377 C   0  0  0  0  0  0  0  0  0  0  0  0
   25.0965   26.3972   17.4929 N   0  0  0  0  0  4  0  0  0  0  0  0
   21.6018   20.1624   15.6023 N   0  0  0  0  0  0  0  0  0  0  0  0
   21.6428   19.4671   16.9103 C   0  0  2  0  0  0  0  0  0  0  0  0
   20.7064   18.2444   16.9072 C   0  0  0  0  0  0  0  0  0  0  0  0
   20.1788   17.8321   17.9374 O   0  0  0  0  0  0  0  0  0  0  0  0
   21.4202   20.3389   18.1478 C   0  0  0  0  0  0  0  0  0  0  0  0
   21.8643   19.6472   19.4402 C   0  0  0  0  0  0  0  0  0  0  0  0
   21.1010   18.3651   19.6795 C   0  0  0  0  0  0  0  0  0  0  0  0
   21.1687   17.7105   20.7129 O   0  0  0  0  0  0  0  0  0  0  0  0
   20.3752   17.9283   18.6111 N   0  0  0  0  0  0  0  0  0  0  0  0
   20.5193   17.5909   15.7188 N   0  0  0  0  0  0  0  0  0  0  0  0
   19.1930   17.5171   15.0688 C   0  0  2  0  0  0  0  0  0  0  0  0
   18.7056   16.0920   14.6761 C   0  0  0  0  0  0  0  0  0  0  0  0
   19.4418   15.1083   14.6902 O   0  0  0  0  0  0  0  0  0  0  0  0
   19.1297   18.4827   13.8606 C   0  0  2  0  0  0  0  0  0  0  0  0
   20.0207   18.0239   12.8232 O   0  0  0  0  0  0  0  0  0  0  0  0
   19.5495   19.8928   14.2748 C   0  0  0  0  0  0  0  0  0  0  0  0
   17.4360   16.0284   14.1329 N   0  0  0  0  0  0  0  0  0  0  0  0
   16.8522   14.7756   13.6338 C   0  0  2  0  0  0  0  0  0  0  0  0
   15.4958   14.9998   12.9003 C   0  0  0  0  0  0  0  0  0  0  0  0
   14.5960   15.6892   13.3780 O   0  0  0  0  0  0  0  0  0  0  0  0
   16.6248   13.8264   14.8047 C   0  0  0  0  0  0  0  0  0  0  0  0
   15.4450   14.4810   11.6263 N   0  0  0  0  0  0  0  0  0  0  0  0
   14.2756   14.5755   10.7465 C   0  0  2  0  0  0  0  0  0  0  0  0
   13.2782   13.4641   11.1502 C   0  0  0  0  0  0  0  0  0  0  0  0
   13.4908   12.6791   12.0730 O   0  0  0  0  0  0  0  0  0  0  0  0
   14.7897   14.4486    9.3052 C   0  0  0  0  0  0  0  0  0  0  0  0
   15.5669   15.6392    8.7480 C   0  0  0  0  0  0  0  0  0  0  0  0
   16.3558   15.2371    7.4984 C   0  0  0  0  0  0  0  0  0  0  0  0
   16.5453   13.7950    7.4812 N   0  0  0  0  0  0  0  0  0  0  0  0
   16.1750   12.9978    6.4564 C   0  0  0  0  0  0  0  0  0  0  0  0
   16.5642   11.7909    6.2390 N   0  0  0  0  0  0  0  0  0  0  0  0
   15.3163   13.6346    5.6379 N   0  0  0  0  0  0  0  0  0  0  0  0
   12.0998   13.4598   10.4337 N   0  0  0  0  0  0  0  0  0  0  0  0
   10.8504   12.9398   10.9850 C   0  0  1  0  0  0  0  0  0  0  0  0
    9.7031   13.9339   10.7571 C   0  0  0  0  0  0  0  0  0  0  0  0
    8.7898   14.0334   11.9877 C   0  0  0  0  0  0  0  0  0  0  0  0
    7.5530   14.8891   11.7240 C   0  0  0  0  0  0  0  0  0  0  0  0
    6.6260   15.0994   12.9286 C   0  0  0  0  0  0  0  0  0  0  0  0
    6.1813   16.5408   13.2326 N   0  0  2  0  0  4  0  0  0  0  0  0
   10.5643   11.5993   10.2854 C   0  0  0  0  0  0  0  0  0  0  0  0
   11.0970   11.2951    9.2215 O   0  0  0  0  0  0  0  0  0  0  0  0
    7.4390   17.3145   13.6657 C   0  0  0  0  0  0  0  0  0  0  0  0
    5.1769   16.6033   14.3745 C   0  0  0  0  0  0  0  0  0  0  0  0
    5.6097   17.2550   12.0090 C   0  0  0  0  0  0  0  0  0  0  0  0
    9.6855   10.7798   10.9594 N   0  0  0  0  0  0  0  0  0  0  0  0
    9.2702    9.4812   10.3987 C   0  0  2  0  0  0  0  0  0  0  0  0
    8.1119    8.8239   11.1725 C   0  0  0  0  0  0  0  0  0  0  0  0
    8.2812    7.9848   12.0522 O   0  0  0  0  0  0  0  0  0  0  0  0
   10.4351    8.5110   10.1843 C   0  0  0  0  0  0  0  0  0  0  0  0
   10.0725    7.2117   10.6718 O   0  0  0  0  0  0  0  0  0  0  0  0
    6.8626    9.1289   10.6682 N   0  0  0  0  0  0  0  0  0  0  0  0
    5.8611    8.0909   10.3922 C   0  0  2  0  0  0  0  0  0  0  0  0
    6.4125    6.7372   10.8851 C   0  0  0  0  0  0  0  0  0  0  0  0
    6.6459    5.7842   10.1425 O   0  0  0  0  0  0  0  0  0  0  0  0
    5.5056    7.9863    8.8959 C   0  0  2  0  0  0  0  0  0  0  0  0
    6.6798    7.6614    8.1313 O   0  0  0  0  0  0  0  0  0  0  0  0
    4.9147    9.2680    8.3208 C   0  0  0  0  0  0  0  0  0  0  0  0
    6.5059    6.6445   12.2617 N   0  0  0  0  0  0  0  0  0  0  0  0
    6.6524    5.3470   12.8984 C   0  0  0  0  0  0  0  0  0  0  0  0
    7.8669    4.5898   12.3761 C   0  0  0  0  0  0  0  0  0  0  0  0
    8.0835    4.2833   11.2141 O   0  0  0  0  0  0  0  0  0  0  0  0
    8.7316    4.1831   13.3370 O   0  0  0  0  0  0  0  0  0  0  0  0
   16.8165   11.3958    7.1448 H   0  0  0  0  0  0  0  0  0  0  0  0
  2  1  1  6
  2  3  1  0
  2  5  1  0
  3  4  2  0
  3 10  1  0
  5  6  1  0
  6  7  1  0
  7  8  1  0
  8  9  1  0
 10 11  1  0
 11 12  1  0
 11 14  1  1
 12 13  2  0
 12 19  1  0
 14 15  1  0
 15 16  1  0
 16 17  2  0
 16 18  1  0
 20 19  1  6
 20 21  1  0
 20 23  1  0
 21 22  2  0
 21 26  1  0
 23 24  1  0
 23 25  1  1
 26 27  1  0
 27 28  1  0
 27 30  1  1
 28 29  2  0
 28 31  1  0
 31 32  1  0
 32 33  1  0
 32 35  1  6
 33 34  2  0
 33 42  1  0
 35 36  1  0
 36 37  1  0
 37 38  1  0
 38 39  1  0
 39 40  2  0
 39 41  1  0
 42 43  1  0
 43 44  1  6
 43 49  1  0
 44 45  1  0
 45 46  1  0
 46 47  1  0
 47 48  1  0
 48 51  1  1
 48 52  1  0
 48 53  1  0
 49 50  2  0
 49 54  1  0
 54 55  1  0
 55 56  1  0
 55 58  1  1
 56 57  2  0
 56 60  1  0
 58 59  1  0
 61 60  1  6
 61 62  1  0
 61 64  1  0
 62 63  2  0
 62 67  1  0
 64 65  1  0
 64 66  1  6
 67 68  1  0
 68 69  1  0
 69 70  2  0
 69 71  1  0
 40 72  1  0
M  CHG  3   1   1   9   1  48   1
M  END
$$$$
