
     RDKit          3D

 72 71  0  0  0  0  0  0  0  0999 V2000
   22.9545   23.1037   20.5268 N   0  0  0  0  0  4  0  0  0  0  0  0
   23.9298   23.6207   19.5035 C   0  0  2  0  0  0  0  0  0  0  0  0
   24.4508   22.4986   18.5806 C   0  0  0  0  0  0  0  0  0  0  0  0
   25.6566   22.2841   18.5013 O   0  0  0  0  0  0  0  0  0  0  0  0
   25.0840   24.3643   20.2086 C   0  0  0  0  0  0  0  0  0  0  0  0
   26.0897   24.9340   19.1856 C   0  0  0  0  0  0  0  0  0  0  0  0
   27.2790   25.7057   19.7748 C   0  0  0  0  0  0  0  0  0  0  0  0
   27.7370   26.8859   18.9178 C   0  0  0  0  0  0  0  0  0  0  0  0
   27.7530   26.4788   17.4906 N   0  0  0  0  0  4  0  0  0  0  0  0
   23.5079   21.7535   17.9026 N   0  0  0  0  0  0  0  0  0  0  0  0
   23.8706   20.6507   16.9815 C   0  0  2  0  0  0  0  0  0  0  0  0
   22.7834   20.4572   15.9080 C   0  0  0  0  0  0  0  0  0  0  0  0
   22.5593   21.3116   15.0540 O   0  0  0  0  0  0  0  0  0  0  0  0
   24.2542   19.3214   17.6349 C   0  0  0  0  0  0  0  0  0  0  0  0
   24.9450   18.3653   16.6578 C   0  0  0  0  0  0  0  0  0  0  0  0
   23.9783   17.8163   15.6342 C   0  0  0  0  0  0  0  0  0  0  0  0
   24.2442   16.9032   14.8619 O   0  0  0  0  0  0  0  0  0  0  0  0
   22.7863   18.4750   15.5681 N   0  0  0  0  0  0  0  0  0  0  0  0
   22.0294   19.3159   15.9664 N   0  0  0  0  0  0  0  0  0  0  0  0
   20.5986   19.3437   16.3392 C   0  0  2  0  0  0  0  0  0  0  0  0
   19.8514   17.9798   16.2740 C   0  0  0  0  0  0  0  0  0  0  0  0
   20.2661   16.9653   16.8297 O   0  0  0  0  0  0  0  0  0  0  0  0
   19.8509   20.4304   15.5293 C   0  0  2  0  0  0  0  0  0  0  0  0
   19.7038   20.0022   14.1598 O   0  0  0  0  0  0  0  0  0  0  0  0
   20.6281   21.7465   15.5473 C   0  0  0  0  0  0  0  0  0  0  0  0
   18.7826   17.9307   15.3988 N   0  0  0  0  0  0  0  0  0  0  0  0
   17.9795   16.7161   15.2000 C   0  0  2  0  0  0  0  0  0  0  0  0
   16.8518   16.9126   14.1427 C   0  0  0  0  0  0  0  0  0  0  0  0
   16.6155   18.0048   13.6286 O   0  0  0  0  0  0  0  0  0  0  0  0
   17.3434   16.3126   16.5253 C   0  0  0  0  0  0  0  0  0  0  0  0
   16.2430   15.7468   13.7364 N   0  0  0  0  0  0  0  0  0  0  0  0
   15.7580   15.5046   12.3739 C   0  0  2  0  0  0  0  0  0  0  0  0
   14.8010   14.2898   12.4122 C   0  0  0  0  0  0  0  0  0  0  0  0
   15.1961   13.1265   12.3530 O   0  0  0  0  0  0  0  0  0  0  0  0
   16.9956   15.2868   11.4915 C   0  0  0  0  0  0  0  0  0  0  0  0
   16.7398   14.9333   10.0281 C   0  0  0  0  0  0  0  0  0  0  0  0
   18.0601   14.7485    9.2743 C   0  0  0  0  0  0  0  0  0  0  0  0
   17.9517   15.3307    7.9457 N   0  0  0  0  0  0  0  0  0  0  0  0
   16.7806   15.5401    7.3073 C   0  0  0  0  0  0  0  0  0  0  0  0
   16.6225   15.8497    6.0686 N   0  0  0  0  0  0  0  0  0  0  0  0
   15.7406   15.3910    8.1493 N   0  0  0  0  0  0  0  0  0  0  0  0
   13.4703   14.6102   12.5809 N   0  0  0  0  0  0  0  0  0  0  0  0
   12.3989   13.6384   12.3731 C   0  0  1  0  0  0  0  0  0  0  0  0
   11.0254   14.3017   12.5469 C   0  0  0  0  0  0  0  0  0  0  0  0
   10.0547   13.3956   13.3184 C   0  0  0  0  0  0  0  0  0  0  0  0
    9.7228   13.9476   14.7028 C   0  0  0  0  0  0  0  0  0  0  0  0
    8.3505   13.5483   15.2616 C   0  0  0  0  0  0  0  0  0  0  0  0
    8.0873   13.8295   16.7514 N   0  0  2  0  0  4  0  0  0  0  0  0
   12.5618   13.0748   10.9504 C   0  0  0  0  0  0  0  0  0  0  0  0
   12.4256   13.7786    9.9532 O   0  0  0  0  0  0  0  0  0  0  0  0
    7.3735   15.1904   16.8300 C   0  0  0  0  0  0  0  0  0  0  0  0
    9.3770   13.9303   17.5535 C   0  0  0  0  0  0  0  0  0  0  0  0
    7.1640   12.7964   17.3952 C   0  0  0  0  0  0  0  0  0  0  0  0
   12.8861   11.7367   10.9003 N   0  0  0  0  0  0  0  0  0  0  0  0
   12.5846   10.9226    9.7087 C   0  0  2  0  0  0  0  0  0  0  0  0
   11.0937   10.5581    9.5791 C   0  0  0  0  0  0  0  0  0  0  0  0
   10.1881   11.2671   10.0078 O   0  0  0  0  0  0  0  0  0  0  0  0
   13.4861    9.6930    9.5684 C   0  0  0  0  0  0  0  0  0  0  0  0
   13.4004    8.8979   10.7591 O   0  0  0  0  0  0  0  0  0  0  0  0
   10.8731    9.2820    9.0985 N   0  0  0  0  0  0  0  0  0  0  0  0
    9.7483    8.9707    8.2071 C   0  0  2  0  0  0  0  0  0  0  0  0
    9.8021    7.4687    7.8596 C   0  0  0  0  0  0  0  0  0  0  0  0
   10.8292    6.8838    7.5175 O   0  0  0  0  0  0  0  0  0  0  0  0
    9.7687    9.7994    6.9074 C   0  0  2  0  0  0  0  0  0  0  0  0
    8.5226    9.6470    6.2055 O   0  0  0  0  0  0  0  0  0  0  0  0
   10.8915    9.4074    5.9545 C   0  0  0  0  0  0  0  0  0  0  0  0
    8.5616    6.8578    7.8459 N   0  0  0  0  0  0  0  0  0  0  0  0
    8.4538    5.4280    7.6133 C   0  0  0  0  0  0  0  0  0  0  0  0
    8.7425    5.0632    6.1625 C   0  0  0  0  0  0  0  0  0  0  0  0
    7.9234    4.7093    5.3289 O   0  0  0  0  0  0  0  0  0  0  0  0
   10.0553    5.0877    5.8274 O   0  0  0  0  0  0  0  0  0  0  0  0
   17.4527   15.5216    5.5753 H   0  0  0  0  0  0  0  0  0  0  0  0
  2  1  1  1
  2  3  1  0
  2  5  1  0
  3  4  2  0
  3 10  1  0
  5  6  1  0
  6  7  1  0
  7  8  1  0
  8  9  1  0
 10 11  1  0
 11 12  1  0
 11 14  1  1
 12 13  2  0
 12 19  1  0
 14 15  1  0
 15 16  1  0
 16 17  2  0
 16 18  1  0
 20 19  1  6
 20 21  1  0
 20 23  1  0
 21 22  2  0
 21 26  1  0
 23 24  1  0
 23 25  1  6
 26 27  1  0
 27 28  1  0
 27 30  1  1
 28 29  2  0
 28 31  1  0
 31 32  1  0
 32 33  1  0
 32 35  1  6
 33 34  2  0
 33 42  1  0
 35 36  1  0
 36 37  1  0
 37 38  1  0
 38 39  1  0
 39 40  2  0
 39 41  1  0
 42 43  1  0
 43 44  1  6
 43 49  1  0
 44 45  1  0
 45 46  1  0
 46 47  1  0
 47 48  1  0
 48 51  1  6
 48 52  1  0
 48 53  1  0
 49 50  2  0
 49 54  1  0
 54 55  1  0
 55 56  1  0
 55 58  1  1
 56 57  2  0
 56 60  1  0
 58 59  1  0
 61 60  1  1
 61 62  1  0
 61 64  1  0
 62 63  2  0
 62 67  1  0
 64 65  1  0
 64 66  1  6
 67 68  1  0
 68 69  1  0
 69 70  2  0
 69 71  1  0
 40 72  1  0
M  CHG  3   1   1   9   1  48   1
M  END
$$$$
