
     RDKit          3D

 72 71  0  0  0  0  0  0  0  0999 V2000
   23.1820   23.1242   16.1828 N   0  0  0  0  0  4  0  0  0  0  0  0
   22.0369   22.4498   15.4756 C   0  0  2  0  0  0  0  0  0  0  0  0
   22.3335   20.9647   15.1780 C   0  0  0  0  0  0  0  0  0  0  0  0
   23.4945   20.5875   15.0514 O   0  0  0  0  0  0  0  0  0  0  0  0
   21.6804   23.2308   14.1930 C   0  0  0  0  0  0  0  0  0  0  0  0
   20.2205   22.9684   13.7661 C   0  0  0  0  0  0  0  0  0  0  0  0
   19.7288   23.7562   12.5436 C   0  0  0  0  0  0  0  0  0  0  0  0
   18.2066   23.8533   12.4410 C   0  0  0  0  0  0  0  0  0  0  0  0
   17.6173   23.7782   13.8011 N   0  0  0  0  0  4  0  0  0  0  0  0
   21.2524   20.1105   15.1024 N   0  0  0  0  0  0  0  0  0  0  0  0
   21.3626   18.6554   15.3607 C   0  0  2  0  0  0  0  0  0  0  0  0
   20.0150   17.9536   15.1095 C   0  0  0  0  0  0  0  0  0  0  0  0
   19.0535   18.1143   15.8573 O   0  0  0  0  0  0  0  0  0  0  0  0
   21.9612   18.2507   16.7094 C   0  0  0  0  0  0  0  0  0  0  0  0
   21.0349   18.5786   17.8843 C   0  0  0  0  0  0  0  0  0  0  0  0
   19.7048   17.8716   17.7626 C   0  0  0  0  0  0  0  0  0  0  0  0
   18.6770   18.4094   17.3685 O   0  0  0  0  0  0  0  0  0  0  0  0
   19.7034   16.5833   18.2091 N   0  0  0  0  0  0  0  0  0  0  0  0
   19.9352   17.0940   14.0468 N   0  0  0  0  0  0  0  0  0  0  0  0
   18.8251   17.1590   13.0719 C   0  0  2  0  0  0  0  0  0  0  0  0
   17.8958   15.9118   13.0141 C   0  0  0  0  0  0  0  0  0  0  0  0
   17.3181   15.5578   11.9889 O   0  0  0  0  0  0  0  0  0  0  0  0
   19.3620   17.5222   11.6662 C   0  0  2  0  0  0  0  0  0  0  0  0
   20.3657   16.5665   11.2664 O   0  0  0  0  0  0  0  0  0  0  0  0
   19.9910   18.9153   11.6727 C   0  0  0  0  0  0  0  0  0  0  0  0
   17.6123   15.3266   14.2340 N   0  0  0  0  0  0  0  0  0  0  0  0
   16.7724   14.1272   14.3586 C   0  0  2  0  0  0  0  0  0  0  0  0
   15.9437   13.8424   13.0701 C   0  0  0  0  0  0  0  0  0  0  0  0
   16.2143   14.3584   11.9868 O   0  0  0  0  0  0  0  0  0  0  0  0
   15.8120   14.3065   15.5289 C   0  0  0  0  0  0  0  0  0  0  0  0
   14.9811   12.8693   13.2158 N   0  0  0  0  0  0  0  0  0  0  0  0
   14.0241   12.4967   12.1691 C   0  0  2  0  0  0  0  0  0  0  0  0
   12.9615   11.5647   12.7976 C   0  0  0  0  0  0  0  0  0  0  0  0
   12.9045   11.3355   14.0048 O   0  0  0  0  0  0  0  0  0  0  0  0
   14.8307   11.8388   11.0402 C   0  0  0  0  0  0  0  0  0  0  0  0
   16.1982   12.4449   10.7324 C   0  0  0  0  0  0  0  0  0  0  0  0
   17.0489   11.4764    9.9054 C   0  0  0  0  0  0  0  0  0  0  0  0
   17.7975   12.2161    8.9013 N   0  0  0  0  0  0  0  0  0  0  0  0
   18.1185   13.5230    9.0108 C   0  0  0  0  0  0  0  0  0  0  0  0
   17.4615   14.5208    8.5334 N   0  0  0  0  0  0  0  0  0  0  0  0
   19.2633   13.6806    9.7018 N   0  0  0  0  0  0  0  0  0  0  0  0
   12.0406   11.0571   11.9053 N   0  0  0  0  0  0  0  0  0  0  0  0
   10.6137   10.9812   12.2114 C   0  0  1  0  0  0  0  0  0  0  0  0
    9.9726   12.3749   12.1522 C   0  0  0  0  0  0  0  0  0  0  0  0
    8.5498   12.3665   12.7302 C   0  0  0  0  0  0  0  0  0  0  0  0
    8.0056   13.7760   12.9509 C   0  0  0  0  0  0  0  0  0  0  0  0
    6.6176   13.8540   13.6007 C   0  0  0  0  0  0  0  0  0  0  0  0
    5.9973   15.2517   13.7724 N   0  0  2  0  0  4  0  0  0  0  0  0
    9.9737   10.0369   11.1785 C   0  0  0  0  0  0  0  0  0  0  0  0
   10.0020   10.2760    9.9743 O   0  0  0  0  0  0  0  0  0  0  0  0
    6.8043   16.2113   12.8804 C   0  0  0  0  0  0  0  0  0  0  0  0
    6.0958   15.7515   15.2067 C   0  0  0  0  0  0  0  0  0  0  0  0
    4.5436   15.3159   13.3070 C   0  0  0  0  0  0  0  0  0  0  0  0
    9.3926    8.9103   11.7183 N   0  0  0  0  0  0  0  0  0  0  0  0
    8.7286    7.9098   10.8630 C   0  0  2  0  0  0  0  0  0  0  0  0
    7.4126    8.4142   10.2416 C   0  0  0  0  0  0  0  0  0  0  0  0
    7.3435    8.9044    9.1184 O   0  0  0  0  0  0  0  0  0  0  0  0
    8.5528    6.5492   11.5429 C   0  0  0  0  0  0  0  0  0  0  0  0
    7.8118    5.6748   10.6806 O   0  0  0  0  0  0  0  0  0  0  0  0
    6.3509    8.4305   11.1251 N   0  0  0  0  0  0  0  0  0  0  0  0
    5.0881    9.1109   10.8105 C   0  0  2  0  0  0  0  0  0  0  0  0
    5.3468   10.1178    9.6709 C   0  0  0  0  0  0  0  0  0  0  0  0
    6.4358   10.2535    9.1143 O   0  0  0  0  0  0  0  0  0  0  0  0
    4.4896    9.8508   12.0233 C   0  0  2  0  0  0  0  0  0  0  0  0
    4.7898    9.1358   13.2347 O   0  0  0  0  0  0  0  0  0  0  0  0
    2.9773   10.0213   11.9452 C   0  0  0  0  0  0  0  0  0  0  0  0
    4.2726   10.9487    9.4104 N   0  0  0  0  0  0  0  0  0  0  0  0
    3.0829   10.4237    8.7629 C   0  0  0  0  0  0  0  0  0  0  0  0
    3.3494   10.0273    7.3161 C   0  0  0  0  0  0  0  0  0  0  0  0
    3.4221   10.7841    6.3605 O   0  0  0  0  0  0  0  0  0  0  0  0
    3.4458    8.6918    7.1079 O   0  0  0  0  0  0  0  0  0  0  0  0
   17.1363   14.2427    7.6076 H   0  0  0  0  0  0  0  0  0  0  0  0
  2  1  1  6
  2  3  1  0
  2  5  1  0
  3  4  2  0
  3 10  1  0
  5  6  1  0
  6  7  1  0
  7  8  1  0
  8  9  1  0
 10 11  1  0
 11 12  1  0
 11 14  1  1
 12 13  2  0
 12 19  1  0
 14 15  1  0
 15 16  1  0
 16 17  2  0
 16 18  1  0
 20 19  1  1
 20 21  1  0
 20 23  1  0
 21 22  2  0
 21 26  1  0
 23 24  1  0
 23 25  1  1
 26 27  1  0
 27 28  1  0
 27 30  1  1
 28 29  2  0
 28 31  1  0
 31 32  1  0
 32 33  1  0
 32 35  1  6
 33 34  2  0
 33 42  1  0
 35 36  1  0
 36 37  1  0
 37 38  1  0
 38 39  1  0
 39 40  2  0
 39 41  1  0
 42 43  1  0
 43 44  1  6
 43 49  1  0
 44 45  1  0
 45 46  1  0
 46 47  1  0
 47 48  1  0
 48 51  1  6
 48 52  1  0
 48 53  1  0
 49 50  2  0
 49 54  1  0
 54 55  1  0
 55 56  1  0
 55 58  1  1
 56 57  2  0
 56 60  1  0
 58 59  1  0
 61 60  1  1
 61 62  1  0
 61 64  1  0
 62 63  2  0
 62 67  1  0
 64 65  1  0
 64 66  1  6
 67 68  1  0
 68 69  1  0
 69 70  2  0
 69 71  1  0
 40 72  1  0
M  CHG  3   1   1   9   1  48   1
M  END
$$$$
