
     RDKit          3D

 72 71  0  0  0  0  0  0  0  0999 V2000
   24.1220   23.7201   15.6564 N   0  0  0  0  0  4  0  0  0  0  0  0
   22.8281   23.0092   15.3622 C   0  0  2  0  0  0  0  0  0  0  0  0
   22.4605   21.9946   16.4656 C   0  0  0  0  0  0  0  0  0  0  0  0
   21.5967   22.2763   17.2907 O   0  0  0  0  0  0  0  0  0  0  0  0
   22.9011   22.3423   13.9722 C   0  0  0  0  0  0  0  0  0  0  0  0
   21.6266   22.6249   13.1487 C   0  0  0  0  0  0  0  0  0  0  0  0
   21.5999   22.0329   11.7325 C   0  0  0  0  0  0  0  0  0  0  0  0
   20.3045   22.3109   10.9696 C   0  0  0  0  0  0  0  0  0  0  0  0
   20.3172   23.7101   10.4748 N   0  0  0  0  0  4  0  0  0  0  0  0
   23.1138   20.7793   16.4454 N   0  0  0  0  0  0  0  0  0  0  0  0
   22.9845   19.7831   17.5348 C   0  0  2  0  0  0  0  0  0  0  0  0
   21.7626   18.8753   17.3011 C   0  0  0  0  0  0  0  0  0  0  0  0
   21.5301   17.9068   18.0206 O   0  0  0  0  0  0  0  0  0  0  0  0
   23.0073   20.3338   18.9621 C   0  0  0  0  0  0  0  0  0  0  0  0
   24.4080   20.3019   19.5809 C   0  0  0  0  0  0  0  0  0  0  0  0
   25.4446   19.8154   18.5947 C   0  0  0  0  0  0  0  0  0  0  0  0
   26.6391   19.7184   18.8488 O   0  0  0  0  0  0  0  0  0  0  0  0
   24.9639   19.5619   17.3442 N   0  0  0  0  0  0  0  0  0  0  0  0
   20.9637   19.1508   16.2239 N   0  0  0  0  0  0  0  0  0  0  0  0
   19.5532   18.7102   16.1651 C   0  0  2  0  0  0  0  0  0  0  0  0
   19.3243   17.1778   16.0159 C   0  0  0  0  0  0  0  0  0  0  0  0
   20.2399   16.3835   15.8148 O   0  0  0  0  0  0  0  0  0  0  0  0
   18.7864   19.4990   15.0761 C   0  0  2  0  0  0  0  0  0  0  0  0
   19.4447   19.3369   13.8029 O   0  0  0  0  0  0  0  0  0  0  0  0
   18.7456   20.9883   15.4173 C   0  0  0  0  0  0  0  0  0  0  0  0
   18.0024   16.7804   15.9412 N   0  0  0  0  0  0  0  0  0  0  0  0
   17.5915   15.5174   15.3123 C   0  0  2  0  0  0  0  0  0  0  0  0
   16.6685   15.7386   14.0764 C   0  0  0  0  0  0  0  0  0  0  0  0
   16.5745   16.8277   13.5124 O   0  0  0  0  0  0  0  0  0  0  0  0
   16.8460   14.6670   16.3344 C   0  0  0  0  0  0  0  0  0  0  0  0
   16.0816   14.5918   13.5917 N   0  0  0  0  0  0  0  0  0  0  0  0
   15.2625   14.5382   12.3766 C   0  0  2  0  0  0  0  0  0  0  0  0
   14.7498   13.0888   12.2049 C   0  0  0  0  0  0  0  0  0  0  0  0
   15.4442   12.1022   12.4444 O   0  0  0  0  0  0  0  0  0  0  0  0
   16.1489   15.0197   11.2189 C   0  0  0  0  0  0  0  0  0  0  0  0
   16.7824   13.9387   10.3458 C   0  0  0  0  0  0  0  0  0  0  0  0
   16.1905   13.9641    8.9335 C   0  0  0  0  0  0  0  0  0  0  0  0
   16.8479   12.9626    8.1084 N   0  0  0  0  0  0  0  0  0  0  0  0
   17.9713   13.1919    7.3955 C   0  0  0  0  0  0  0  0  0  0  0  0
   18.9931   12.4165    7.2964 N   0  0  0  0  0  0  0  0  0  0  0  0
   17.9104   14.3840    6.7725 N   0  0  0  0  0  0  0  0  0  0  0  0
   13.4293   12.9868   11.8205 N   0  0  0  0  0  0  0  0  0  0  0  0
   12.7834   11.6997   11.5727 C   0  0  1  0  0  0  0  0  0  0  0  0
   11.8167   11.3508   12.7131 C   0  0  0  0  0  0  0  0  0  0  0  0
   10.9434   10.1374   12.3613 C   0  0  0  0  0  0  0  0  0  0  0  0
   10.0199    9.7357   13.5090 C   0  0  0  0  0  0  0  0  0  0  0  0
    8.7073   10.5242   13.6077 C   0  0  0  0  0  0  0  0  0  0  0  0
    7.5549    9.8786   14.3970 N   0  0  2  0  0  4  0  0  0  0  0  0
   12.0354   11.8134   10.2327 C   0  0  0  0  0  0  0  0  0  0  0  0
   11.7751   12.9005    9.7241 O   0  0  0  0  0  0  0  0  0  0  0  0
    8.1700    8.7503   15.2433 C   0  0  0  0  0  0  0  0  0  0  0  0
    6.5078    9.2598   13.4819 C   0  0  0  0  0  0  0  0  0  0  0  0
    6.8798   10.8517   15.3622 C   0  0  0  0  0  0  0  0  0  0  0  0
   11.7069   10.6050    9.6580 N   0  0  0  0  0  0  0  0  0  0  0  0
   10.9617   10.5418    8.3875 C   0  0  2  0  0  0  0  0  0  0  0  0
    9.4332   10.5176    8.5763 C   0  0  0  0  0  0  0  0  0  0  0  0
    8.8863   10.0702    9.5800 O   0  0  0  0  0  0  0  0  0  0  0  0
   11.4388    9.4226    7.4579 C   0  0  0  0  0  0  0  0  0  0  0  0
   11.3889    8.1688    8.1527 O   0  0  0  0  0  0  0  0  0  0  0  0
    8.7275   10.8785    7.4450 N   0  0  0  0  0  0  0  0  0  0  0  0
    7.3031   10.5599    7.2826 C   0  0  2  0  0  0  0  0  0  0  0  0
    7.0996    9.9292    5.8897 C   0  0  0  0  0  0  0  0  0  0  0  0
    7.8243   10.1618    4.9228 O   0  0  0  0  0  0  0  0  0  0  0  0
    6.3943   11.7970    7.4239 C   0  0  2  0  0  0  0  0  0  0  0  0
    6.5990   12.6889    6.3141 O   0  0  0  0  0  0  0  0  0  0  0  0
    6.6357   12.5849    8.7059 C   0  0  0  0  0  0  0  0  0  0  0  0
    5.9490    9.1690    5.7878 N   0  0  0  0  0  0  0  0  0  0  0  0
    6.0275    7.7186    5.8068 C   0  0  0  0  0  0  0  0  0  0  0  0
    4.8295    7.0921    6.5094 C   0  0  0  0  0  0  0  0  0  0  0  0
    4.3249    6.0102    6.2527 O   0  0  0  0  0  0  0  0  0  0  0  0
    4.2642    7.8738    7.4611 O   0  0  0  0  0  0  0  0  0  0  0  0
   19.3442   12.5134    6.3437 H   0  0  0  0  0  0  0  0  0  0  0  0
  2  1  1  1
  2  3  1  0
  2  5  1  0
  3  4  2  0
  3 10  1  0
  5  6  1  0
  6  7  1  0
  7  8  1  0
  8  9  1  0
 10 11  1  0
 11 12  1  0
 11 14  1  1
 12 13  2  0
 12 19  1  0
 14 15  1  0
 15 16  1  0
 16 17  2  0
 16 18  1  0
 20 19  1  6
 20 21  1  0
 20 23  1  0
 21 22  2  0
 21 26  1  0
 23 24  1  0
 23 25  1  1
 26 27  1  0
 27 28  1  0
 27 30  1  1
 28 29  2  0
 28 31  1  0
 31 32  1  0
 32 33  1  0
 32 35  1  6
 33 34  2  0
 33 42  1  0
 35 36  1  0
 36 37  1  0
 37 38  1  0
 38 39  1  0
 39 40  2  0
 39 41  1  0
 42 43  1  0
 43 44  1  1
 43 49  1  0
 44 45  1  0
 45 46  1  0
 46 47  1  0
 47 48  1  0
 48 51  1  1
 48 52  1  0
 48 53  1  0
 49 50  2  0
 49 54  1  0
 54 55  1  0
 55 56  1  0
 55 58  1  1
 56 57  2  0
 56 60  1  0
 58 59  1  0
 61 60  1  6
 61 62  1  0
 61 64  1  0
 62 63  2  0
 62 67  1  0
 64 65  1  0
 64 66  1  1
 67 68  1  0
 68 69  1  0
 69 70  2  0
 69 71  1  0
 40 72  1  0
M  CHG  3   1   1   9   1  48   1
M  END
$$$$
