
     RDKit          3D

 72 71  0  0  0  0  0  0  0  0999 V2000
   21.4310   22.2190   17.0056 N   0  0  0  0  0  4  0  0  0  0  0  0
   21.1733   22.0428   15.5330 C   0  0  2  0  0  0  0  0  0  0  0  0
   20.6511   20.6288   15.2012 C   0  0  0  0  0  0  0  0  0  0  0  0
   19.7356   20.4897   14.3957 O   0  0  0  0  0  0  0  0  0  0  0  0
   22.4484   22.3847   14.7334 C   0  0  0  0  0  0  0  0  0  0  0  0
   22.1529   23.4159   13.6236 C   0  0  0  0  0  0  0  0  0  0  0  0
   22.5191   22.9861   12.1960 C   0  0  0  0  0  0  0  0  0  0  0  0
   24.0030   23.1430   11.8636 C   0  0  0  0  0  0  0  0  0  0  0  0
   24.3365   22.2920   10.6942 N   0  0  0  0  0  4  0  0  0  0  0  0
   21.2798   19.5658   15.8166 N   0  0  0  0  0  0  0  0  0  0  0  0
   20.5597   18.6018   16.6814 C   0  0  2  0  0  0  0  0  0  0  0  0
   19.2827   18.0940   15.9861 C   0  0  0  0  0  0  0  0  0  0  0  0
   18.2147   17.9986   16.5860 O   0  0  0  0  0  0  0  0  0  0  0  0
   20.2726   19.0597   18.1129 C   0  0  0  0  0  0  0  0  0  0  0  0
   21.2523   20.1350   18.5923 C   0  0  0  0  0  0  0  0  0  0  0  0
   20.9316   20.5992   19.9942 C   0  0  0  0  0  0  0  0  0  0  0  0
   20.4192   19.8885   20.8505 O   0  0  0  0  0  0  0  0  0  0  0  0
   21.1810   21.9194   20.2264 N   0  0  0  0  0  0  0  0  0  0  0  0
   19.3861   17.6970   14.6799 N   0  0  0  0  0  0  0  0  0  0  0  0
   18.2201   17.1930   13.9226 C   0  0  2  0  0  0  0  0  0  0  0  0
   17.7533   15.7499   14.2723 C   0  0  0  0  0  0  0  0  0  0  0  0
   18.3489   15.0321   15.0722 O   0  0  0  0  0  0  0  0  0  0  0  0
   18.4555   17.3515   12.4009 C   0  0  2  0  0  0  0  0  0  0  0  0
   19.5753   16.5384   11.9940 O   0  0  0  0  0  0  0  0  0  0  0  0
   18.7585   18.8082   12.0511 C   0  0  0  0  0  0  0  0  0  0  0  0
   16.7274   15.2529   13.4904 N   0  0  0  0  0  0  0  0  0  0  0  0
   16.3523   13.8320   13.4892 C   0  0  2  0  0  0  0  0  0  0  0  0
   15.6262   13.4075   12.1774 C   0  0  0  0  0  0  0  0  0  0  0  0
   16.0175   13.7597   11.0657 O   0  0  0  0  0  0  0  0  0  0  0  0
   15.4300   13.5554   14.6710 C   0  0  0  0  0  0  0  0  0  0  0  0
   14.6047   12.5030   12.3593 N   0  0  0  0  0  0  0  0  0  0  0  0
   13.4513   12.3746   11.4628 C   0  0  2  0  0  0  0  0  0  0  0  0
   12.2894   11.7379   12.2612 C   0  0  0  0  0  0  0  0  0  0  0  0
   12.4486   11.1941   13.3529 O   0  0  0  0  0  0  0  0  0  0  0  0
   13.9094   11.5323   10.2635 C   0  0  0  0  0  0  0  0  0  0  0  0
   15.4077   11.2591   10.1508 C   0  0  0  0  0  0  0  0  0  0  0  0
   15.7069   10.3534    8.9525 C   0  0  0  0  0  0  0  0  0  0  0  0
   17.1369   10.0991    8.8752 N   0  0  0  0  0  0  0  0  0  0  0  0
   17.7763    9.1593    9.6037 C   0  0  0  0  0  0  0  0  0  0  0  0
   18.9902    9.2061   10.0275 N   0  0  0  0  0  0  0  0  0  0  0  0
   16.9703    8.1084    9.8465 N   0  0  0  0  0  0  0  0  0  0  0  0
   11.0460   11.8816   11.6821 N   0  0  0  0  0  0  0  0  0  0  0  0
    9.8550   11.2206   12.2112 C   0  0  1  0  0  0  0  0  0  0  0  0
    9.1350   12.1279   13.2187 C   0  0  0  0  0  0  0  0  0  0  0  0
    7.7938   12.6322   12.6659 C   0  0  0  0  0  0  0  0  0  0  0  0
    7.1117   13.6188   13.6108 C   0  0  0  0  0  0  0  0  0  0  0  0
    5.7590   14.1636   13.1331 C   0  0  0  0  0  0  0  0  0  0  0  0
    5.0732   15.2206   14.0163 N   0  0  2  0  0  4  0  0  0  0  0  0
    8.9434   10.8943   11.0151 C   0  0  0  0  0  0  0  0  0  0  0  0
    9.3493   10.9411    9.8570 O   0  0  0  0  0  0  0  0  0  0  0  0
    3.8365   15.7134   13.2448 C   0  0  0  0  0  0  0  0  0  0  0  0
    5.9714   16.4214   14.2772 C   0  0  0  0  0  0  0  0  0  0  0  0
    4.5802   14.6521   15.3460 C   0  0  0  0  0  0  0  0  0  0  0  0
    7.6586   10.5340   11.3583 N   0  0  0  0  0  0  0  0  0  0  0  0
    7.0257    9.3304   10.7889 C   0  0  2  0  0  0  0  0  0  0  0  0
    5.5689    9.1310   11.2476 C   0  0  0  0  0  0  0  0  0  0  0  0
    5.1773    9.3994   12.3795 O   0  0  0  0  0  0  0  0  0  0  0  0
    7.8600    8.0598   10.9732 C   0  0  0  0  0  0  0  0  0  0  0  0
    7.0481    7.0349   11.5629 O   0  0  0  0  0  0  0  0  0  0  0  0
    4.7844    8.4586   10.3308 N   0  0  0  0  0  0  0  0  0  0  0  0
    3.3816    8.1227   10.6062 C   0  0  2  0  0  0  0  0  0  0  0  0
    3.0593    6.7763    9.9259 C   0  0  0  0  0  0  0  0  0  0  0  0
    3.2890    6.5384    8.7407 O   0  0  0  0  0  0  0  0  0  0  0  0
    2.3996    9.1997   10.1041 C   0  0  2  0  0  0  0  0  0  0  0  0
    3.0307   10.0128    9.0994 O   0  0  0  0  0  0  0  0  0  0  0  0
    1.8980   10.1255   11.2058 C   0  0  0  0  0  0  0  0  0  0  0  0
    2.3709    5.8947   10.7390 N   0  0  0  0  0  0  0  0  0  0  0  0
    2.8878    4.5567   10.9687 C   0  0  0  0  0  0  0  0  0  0  0  0
    2.4854    3.5922    9.8601 C   0  0  0  0  0  0  0  0  0  0  0  0
    1.6809    2.6782    9.9533 O   0  0  0  0  0  0  0  0  0  0  0  0
    3.1561    3.7635    8.6952 O   0  0  0  0  0  0  0  0  0  0  0  0
   19.5324    9.6913    9.3128 H   0  0  0  0  0  0  0  0  0  0  0  0
  2  1  1  1
  2  3  1  0
  2  5  1  0
  3  4  2  0
  3 10  1  0
  5  6  1  0
  6  7  1  0
  7  8  1  0
  8  9  1  0
 10 11  1  0
 11 12  1  0
 11 14  1  1
 12 13  2  0
 12 19  1  0
 14 15  1  0
 15 16  1  0
 16 17  2  0
 16 18  1  0
 20 19  1  1
 20 21  1  0
 20 23  1  0
 21 22  2  0
 21 26  1  0
 23 24  1  0
 23 25  1  1
 26 27  1  0
 27 28  1  0
 27 30  1  1
 28 29  2  0
 28 31  1  0
 31 32  1  0
 32 33  1  0
 32 35  1  6
 33 34  2  0
 33 42  1  0
 35 36  1  0
 36 37  1  0
 37 38  1  0
 38 39  1  0
 39 40  2  0
 39 41  1  0
 42 43  1  0
 43 44  1  1
 43 49  1  0
 44 45  1  0
 45 46  1  0
 46 47  1  0
 47 48  1  0
 48 51  1  6
 48 52  1  0
 48 53  1  0
 49 50  2  0
 49 54  1  0
 54 55  1  0
 55 56  1  0
 55 58  1  1
 56 57  2  0
 56 60  1  0
 58 59  1  0
 61 60  1  6
 61 62  1  0
 61 64  1  0
 62 63  2  0
 62 67  1  0
 64 65  1  0
 64 66  1  1
 67 68  1  0
 68 69  1  0
 69 70  2  0
 69 71  1  0
 40 72  1  0
M  CHG  3   1   1   9   1  48   1
M  END
$$$$
