
     RDKit          3D

 72 71  0  0  0  0  0  0  0  0999 V2000
   23.2048   22.9481   13.8694 N   0  0  0  0  0  4  0  0  0  0  0  0
   24.4194   22.0590   13.8759 C   0  0  2  0  0  0  0  0  0  0  0  0
   24.1202   20.6736   14.4869 C   0  0  0  0  0  0  0  0  0  0  0  0
   24.9745   19.7932   14.4509 O   0  0  0  0  0  0  0  0  0  0  0  0
   25.5826   22.7664   14.6030 C   0  0  0  0  0  0  0  0  0  0  0  0
   26.7559   21.7962   14.8569 C   0  0  0  0  0  0  0  0  0  0  0  0
   27.9485   22.3762   15.6305 C   0  0  0  0  0  0  0  0  0  0  0  0
   29.2230   21.5389   15.5220 C   0  0  0  0  0  0  0  0  0  0  0  0
   30.2992   22.1780   16.3196 N   0  0  0  0  0  4  0  0  0  0  0  0
   22.8896   20.5037   15.0877 N   0  0  0  0  0  0  0  0  0  0  0  0
   22.5309   19.2817   15.8453 C   0  0  2  0  0  0  0  0  0  0  0  0
   21.0877   19.3729   16.3753 C   0  0  0  0  0  0  0  0  0  0  0  0
   20.7609   20.2030   17.2201 O   0  0  0  0  0  0  0  0  0  0  0  0
   23.5051   18.8571   16.9461 C   0  0  0  0  0  0  0  0  0  0  0  0
   22.8935   18.9690   18.3459 C   0  0  0  0  0  0  0  0  0  0  0  0
   21.5720   18.2420   18.4389 C   0  0  0  0  0  0  0  0  0  0  0  0
   21.3571   17.3067   19.2005 O   0  0  0  0  0  0  0  0  0  0  0  0
   20.6337   18.6518   17.5386 N   0  0  0  0  0  0  0  0  0  0  0  0
   20.1820   18.4568   15.9117 N   0  0  0  0  0  0  0  0  0  0  0  0
   18.9427   18.8670   15.2169 C   0  0  2  0  0  0  0  0  0  0  0  0
   17.9671   17.7178   14.8294 C   0  0  0  0  0  0  0  0  0  0  0  0
   16.8855   17.9178   14.2817 O   0  0  0  0  0  0  0  0  0  0  0  0
   19.2784   19.7525   13.9924 C   0  0  2  0  0  0  0  0  0  0  0  0
   20.0770   19.0031   13.0537 O   0  0  0  0  0  0  0  0  0  0  0  0
   20.0652   20.9906   14.4219 C   0  0  0  0  0  0  0  0  0  0  0  0
   18.3085   16.4651   15.3039 N   0  0  0  0  0  0  0  0  0  0  0  0
   17.4236   15.3000   15.1658 C   0  0  2  0  0  0  0  0  0  0  0  0
   16.4692   15.4174   13.9396 C   0  0  0  0  0  0  0  0  0  0  0  0
   16.1616   16.5019   13.4473 O   0  0  0  0  0  0  0  0  0  0  0  0
   16.5827   15.1559   16.4291 C   0  0  0  0  0  0  0  0  0  0  0  0
   16.1152   14.2124   13.3762 N   0  0  0  0  0  0  0  0  0  0  0  0
   15.2308   14.0766   12.2145 C   0  0  2  0  0  0  0  0  0  0  0  0
   14.1245   13.0549   12.5683 C   0  0  0  0  0  0  0  0  0  0  0  0
   14.3681   11.8995   12.9130 O   0  0  0  0  0  0  0  0  0  0  0  0
   16.1104   13.6477   11.0313 C   0  0  0  0  0  0  0  0  0  0  0  0
   17.3756   14.4670   10.7860 C   0  0  0  0  0  0  0  0  0  0  0  0
   18.1355   13.9419    9.5644 C   0  0  0  0  0  0  0  0  0  0  0  0
   19.3084   14.7679    9.3243 N   0  0  0  0  0  0  0  0  0  0  0  0
   19.2637   16.1035    9.1314 C   0  0  0  0  0  0  0  0  0  0  0  0
   20.2397   16.9330    9.2525 N   0  0  0  0  0  0  0  0  0  0  0  0
   18.0230   16.4985    8.7886 N   0  0  0  0  0  0  0  0  0  0  0  0
   12.8412   13.5584   12.5276 N   0  0  0  0  0  0  0  0  0  0  0  0
   11.6655   12.6970   12.4223 C   0  0  1  0  0  0  0  0  0  0  0  0
   10.3801   13.5360   12.4014 C   0  0  0  0  0  0  0  0  0  0  0  0
    9.1273   12.6512   12.4805 C   0  0  0  0  0  0  0  0  0  0  0  0
    8.1429   13.1339   13.5432 C   0  0  0  0  0  0  0  0  0  0  0  0
    6.9679   13.9726   13.0230 C   0  0  0  0  0  0  0  0  0  0  0  0
    5.8943   14.3906   14.0431 N   0  0  2  0  0  4  0  0  0  0  0  0
   11.8109   11.8807   11.1259 C   0  0  0  0  0  0  0  0  0  0  0  0
   12.4537   12.2957   10.1653 O   0  0  0  0  0  0  0  0  0  0  0  0
    4.8488   15.2199   13.2770 C   0  0  0  0  0  0  0  0  0  0  0  0
    6.4642   15.2643   15.1514 C   0  0  0  0  0  0  0  0  0  0  0  0
    5.1639   13.1973   14.6569 C   0  0  0  0  0  0  0  0  0  0  0  0
   11.1800   10.6560   11.1488 N   0  0  0  0  0  0  0  0  0  0  0  0
   10.9471    9.8943    9.9083 C   0  0  2  0  0  0  0  0  0  0  0  0
    9.4686    9.5229    9.6879 C   0  0  0  0  0  0  0  0  0  0  0  0
    8.9069    8.6120   10.2891 O   0  0  0  0  0  0  0  0  0  0  0  0
   11.8680    8.6803    9.7582 C   0  0  0  0  0  0  0  0  0  0  0  0
   11.6493    7.7753   10.8492 O   0  0  0  0  0  0  0  0  0  0  0  0
    8.8807   10.1862    8.6284 N   0  0  0  0  0  0  0  0  0  0  0  0
    7.5698    9.7928    8.0960 C   0  0  2  0  0  0  0  0  0  0  0  0
    7.6758    8.3532    7.5521 C   0  0  0  0  0  0  0  0  0  0  0  0
    8.6807    7.9037    7.0025 O   0  0  0  0  0  0  0  0  0  0  0  0
    7.0741   10.7294    6.9764 C   0  0  2  0  0  0  0  0  0  0  0  0
    7.9057   10.5889    5.8112 O   0  0  0  0  0  0  0  0  0  0  0  0
    7.0712   12.2010    7.3723 C   0  0  0  0  0  0  0  0  0  0  0  0
    6.4909    7.6440    7.6255 N   0  0  0  0  0  0  0  0  0  0  0  0
    6.4410    6.2581    7.1930 C   0  0  0  0  0  0  0  0  0  0  0  0
    7.3711    5.3717    8.0118 C   0  0  0  0  0  0  0  0  0  0  0  0
    8.5911    5.4222    8.0265 O   0  0  0  0  0  0  0  0  0  0  0  0
    6.7427    4.4087    8.7288 O   0  0  0  0  0  0  0  0  0  0  0  0
   19.8920   17.7173    9.8040 H   0  0  0  0  0  0  0  0  0  0  0  0
  2  1  1  1
  2  3  1  0
  2  5  1  0
  3  4  2  0
  3 10  1  0
  5  6  1  0
  6  7  1  0
  7  8  1  0
  8  9  1  0
 10 11  1  0
 11 12  1  0
 11 14  1  1
 12 13  2  0
 12 19  1  0
 14 15  1  0
 15 16  1  0
 16 17  2  0
 16 18  1  0
 20 19  1  6
 20 21  1  0
 20 23  1  0
 21 22  2  0
 21 26  1  0
 23 24  1  0
 23 25  1  1
 26 27  1  0
 27 28  1  0
 27 30  1  1
 28 29  2  0
 28 31  1  0
 31 32  1  0
 32 33  1  0
 32 35  1  6
 33 34  2  0
 33 42  1  0
 35 36  1  0
 36 37  1  0
 37 38  1  0
 38 39  1  0
 39 40  2  0
 39 41  1  0
 42 43  1  0
 43 44  1  6
 43 49  1  0
 44 45  1  0
 45 46  1  0
 46 47  1  0
 47 48  1  0
 48 51  1  6
 48 52  1  0
 48 53  1  0
 49 50  2  0
 49 54  1  0
 54 55  1  0
 55 56  1  0
 55 58  1  1
 56 57  2  0
 56 60  1  0
 58 59  1  0
 61 60  1  6
 61 62  1  0
 61 64  1  0
 62 63  2  0
 62 67  1  0
 64 65  1  0
 64 66  1  1
 67 68  1  0
 68 69  1  0
 69 70  2  0
 69 71  1  0
 40 72  1  0
M  CHG  3   1   1   9   1  48   1
M  END
$$$$
