
     RDKit          3D

 72 71  0  0  0  0  0  0  0  0999 V2000
   25.3596   23.3791   16.1897 N   0  0  0  0  0  4  0  0  0  0  0  0
   24.9578   22.0798   16.8350 C   0  0  2  0  0  0  0  0  0  0  0  0
   23.6599   21.5076   16.2265 C   0  0  0  0  0  0  0  0  0  0  0  0
   23.0232   20.6551   16.8382 O   0  0  0  0  0  0  0  0  0  0  0  0
   24.8399   22.2679   18.3624 C   0  0  0  0  0  0  0  0  0  0  0  0
   26.1972   22.0386   19.0605 C   0  0  0  0  0  0  0  0  0  0  0  0
   26.1554   21.9517   20.5927 C   0  0  0  0  0  0  0  0  0  0  0  0
   25.6251   23.2153   21.2702 C   0  0  0  0  0  0  0  0  0  0  0  0
   24.2769   23.5299   20.7351 N   0  0  0  0  0  4  0  0  0  0  0  0
   23.2544   22.0224   15.0122 N   0  0  0  0  0  0  0  0  0  0  0  0
   21.8918   21.8124   14.4689 C   0  0  2  0  0  0  0  0  0  0  0  0
   21.4779   20.3340   14.5914 C   0  0  0  0  0  0  0  0  0  0  0  0
   22.2710   19.4210   14.3747 O   0  0  0  0  0  0  0  0  0  0  0  0
   21.6345   22.3503   13.0598 C   0  0  0  0  0  0  0  0  0  0  0  0
   20.1924   22.1196   12.5981 C   0  0  0  0  0  0  0  0  0  0  0  0
   20.1364   21.3308   11.3104 C   0  0  0  0  0  0  0  0  0  0  0  0
   20.8651   21.5387   10.3478 O   0  0  0  0  0  0  0  0  0  0  0  0
   19.1406   20.4009   11.2568 N   0  0  0  0  0  0  0  0  0  0  0  0
   20.1717   20.0638   14.9001 N   0  0  0  0  0  0  0  0  0  0  0  0
   19.6854   18.6807   15.0938 C   0  0  2  0  0  0  0  0  0  0  0  0
   18.5605   18.2127   14.1251 C   0  0  0  0  0  0  0  0  0  0  0  0
   17.7704   18.9907   13.5956 O   0  0  0  0  0  0  0  0  0  0  0  0
   19.2826   18.4522   16.5708 C   0  0  2  0  0  0  0  0  0  0  0  0
   18.2041   19.3422   16.9249 O   0  0  0  0  0  0  0  0  0  0  0  0
   20.4647   18.7254   17.5005 C   0  0  0  0  0  0  0  0  0  0  0  0
   18.3860   16.8443   14.0364 N   0  0  0  0  0  0  0  0  0  0  0  0
   17.3564   16.2329   13.1845 C   0  0  2  0  0  0  0  0  0  0  0  0
   16.7506   14.9423   13.8135 C   0  0  0  0  0  0  0  0  0  0  0  0
   17.0249   14.5760   14.9553 O   0  0  0  0  0  0  0  0  0  0  0  0
   17.9678   15.8789   11.8337 C   0  0  0  0  0  0  0  0  0  0  0  0
   15.7880   14.3310   13.0425 N   0  0  0  0  0  0  0  0  0  0  0  0
   14.5048   13.8465   13.5613 C   0  0  2  0  0  0  0  0  0  0  0  0
   13.7281   13.1948   12.3931 C   0  0  0  0  0  0  0  0  0  0  0  0
   12.9892   13.8325   11.6445 O   0  0  0  0  0  0  0  0  0  0  0  0
   13.7881   15.0555   14.1797 C   0  0  0  0  0  0  0  0  0  0  0  0
   12.3066   14.8802   14.5060 C   0  0  0  0  0  0  0  0  0  0  0  0
   12.1260   14.1922   15.8623 C   0  0  0  0  0  0  0  0  0  0  0  0
   10.7705   14.4071   16.3444 N   0  0  0  0  0  0  0  0  0  0  0  0
   10.3062   15.5960   16.7846 C   0  0  0  0  0  0  0  0  0  0  0  0
   11.0010   16.5607   17.2763 N   0  0  0  0  0  0  0  0  0  0  0  0
    8.9678   15.6670   16.6557 N   0  0  0  0  0  0  0  0  0  0  0  0
   13.9765   11.8499   12.2156 N   0  0  0  0  0  0  0  0  0  0  0  0
   13.5785   11.1334   11.0059 C   0  0  1  0  0  0  0  0  0  0  0  0
   13.9262    9.6426   11.1207 C   0  0  0  0  0  0  0  0  0  0  0  0
   13.9207    8.9545    9.7477 C   0  0  0  0  0  0  0  0  0  0  0  0
   14.3159    7.4822    9.8357 C   0  0  0  0  0  0  0  0  0  0  0  0
   14.6449    6.8054    8.4984 C   0  0  0  0  0  0  0  0  0  0  0  0
   15.1820    5.3644    8.5510 N   0  0  2  0  0  4  0  0  0  0  0  0
   12.0623   11.3331   10.8337 C   0  0  0  0  0  0  0  0  0  0  0  0
   11.4581   12.2404   11.3994 O   0  0  0  0  0  0  0  0  0  0  0  0
   16.5690    5.3798    7.8850 C   0  0  0  0  0  0  0  0  0  0  0  0
   14.3012    4.3946    7.7761 C   0  0  0  0  0  0  0  0  0  0  0  0
   15.3712    4.8545    9.9788 C   0  0  0  0  0  0  0  0  0  0  0  0
   11.4598   10.4277    9.9878 N   0  0  0  0  0  0  0  0  0  0  0  0
   10.0149   10.1480   10.0734 C   0  0  2  0  0  0  0  0  0  0  0  0
    9.5564    9.0109    9.1411 C   0  0  0  0  0  0  0  0  0  0  0  0
   10.0947    8.7640    8.0660 O   0  0  0  0  0  0  0  0  0  0  0  0
    9.1435   11.3975    9.9192 C   0  0  0  0  0  0  0  0  0  0  0  0
    8.9890   11.7050    8.5268 O   0  0  0  0  0  0  0  0  0  0  0  0
    8.3775    8.4091    9.5364 N   0  0  0  0  0  0  0  0  0  0  0  0
    7.8862    7.1753    8.9095 C   0  0  2  0  0  0  0  0  0  0  0  0
    7.2489    7.5376    7.5523 C   0  0  0  0  0  0  0  0  0  0  0  0
    6.9627    8.6866    7.2178 O   0  0  0  0  0  0  0  0  0  0  0  0
    6.8530    6.4331    9.7802 C   0  0  2  0  0  0  0  0  0  0  0  0
    5.7359    6.0184    8.9745 O   0  0  0  0  0  0  0  0  0  0  0  0
    6.3116    7.2740   10.9301 C   0  0  0  0  0  0  0  0  0  0  0  0
    6.9101    6.4367    6.7871 N   0  0  0  0  0  0  0  0  0  0  0  0
    6.5871    6.5964    5.3799 C   0  0  0  0  0  0  0  0  0  0  0  0
    5.0988    6.4108    5.1121 C   0  0  0  0  0  0  0  0  0  0  0  0
    4.6017    5.8521    4.1468 O   0  0  0  0  0  0  0  0  0  0  0  0
    4.2863    6.9925    6.0275 O   0  0  0  0  0  0  0  0  0  0  0  0
   11.9277   16.1840   17.4750 H   0  0  0  0  0  0  0  0  0  0  0  0
  2  1  1  6
  2  3  1  0
  2  5  1  0
  3  4  2  0
  3 10  1  0
  5  6  1  0
  6  7  1  0
  7  8  1  0
  8  9  1  0
 10 11  1  0
 11 12  1  0
 11 14  1  6
 12 13  2  0
 12 19  1  0
 14 15  1  0
 15 16  1  0
 16 17  2  0
 16 18  1  0
 20 19  1  1
 20 21  1  0
 20 23  1  0
 21 22  2  0
 21 26  1  0
 23 24  1  0
 23 25  1  1
 26 27  1  0
 27 28  1  0
 27 30  1  6
 28 29  2  0
 28 31  1  0
 31 32  1  0
 32 33  1  0
 32 35  1  6
 33 34  2  0
 33 42  1  0
 35 36  1  0
 36 37  1  0
 37 38  1  0
 38 39  1  0
 39 40  2  0
 39 41  1  0
 42 43  1  0
 43 44  1  1
 43 49  1  0
 44 45  1  0
 45 46  1  0
 46 47  1  0
 47 48  1  0
 48 51  1  6
 48 52  1  0
 48 53  1  0
 49 50  2  0
 49 54  1  0
 54 55  1  0
 55 56  1  0
 55 58  1  6
 56 57  2  0
 56 60  1  0
 58 59  1  0
 61 60  1  1
 61 62  1  0
 61 64  1  0
 62 63  2  0
 62 67  1  0
 64 65  1  0
 64 66  1  1
 67 68  1  0
 68 69  1  0
 69 70  2  0
 69 71  1  0
 40 72  1  0
M  CHG  3   1   1   9   1  48   1
M  END
$$$$
