
     RDKit          3D

 72 71  0  0  0  0  0  0  0  0999 V2000
   21.5303   22.1526   18.1426 N   0  0  0  0  0  4  0  0  0  0  0  0
   21.8337   20.8092   17.5351 C   0  0  2  0  0  0  0  0  0  0  0  0
   22.4238   20.9354   16.1145 C   0  0  0  0  0  0  0  0  0  0  0  0
   22.6880   22.0442   15.6596 O   0  0  0  0  0  0  0  0  0  0  0  0
   20.5666   19.9280   17.5527 C   0  0  0  0  0  0  0  0  0  0  0  0
   19.4150   20.6198   18.3127 C   0  0  0  0  0  0  0  0  0  0  0  0
   19.1471   20.1053   19.7342 C   0  0  0  0  0  0  0  0  0  0  0  0
   18.0990   18.9946   19.8033 C   0  0  0  0  0  0  0  0  0  0  0  0
   17.9518   18.5457   21.2103 N   0  0  0  0  0  4  0  0  0  0  0  0
   22.6620   19.7635   15.4261 N   0  0  0  0  0  0  0  0  0  0  0  0
   22.1405   19.5171   14.0611 C   0  0  2  0  0  0  0  0  0  0  0  0
   20.6176   19.2898   14.0921 C   0  0  0  0  0  0  0  0  0  0  0  0
   20.1064   18.4351   14.8117 O   0  0  0  0  0  0  0  0  0  0  0  0
   22.8516   18.4316   13.2504 C   0  0  0  0  0  0  0  0  0  0  0  0
   24.2730   18.8363   12.8482 C   0  0  0  0  0  0  0  0  0  0  0  0
   24.3195   20.2420   12.2956 C   0  0  0  0  0  0  0  0  0  0  0  0
   23.7139   20.6044   11.2941 O   0  0  0  0  0  0  0  0  0  0  0  0
   25.1663   21.0836   12.9542 N   0  0  0  0  0  0  0  0  0  0  0  0
   19.8463   20.0399   13.2454 N   0  0  0  0  0  0  0  0  0  0  0  0
   18.7114   19.4552   12.4989 C   0  0  2  0  0  0  0  0  0  0  0  0
   18.2860   18.0189   12.9218 C   0  0  0  0  0  0  0  0  0  0  0  0
   18.7917   17.4266   13.8723 O   0  0  0  0  0  0  0  0  0  0  0  0
   18.9690   19.5364   10.9747 C   0  0  2  0  0  0  0  0  0  0  0  0
   19.6682   18.3538   10.5353 O   0  0  0  0  0  0  0  0  0  0  0  0
   19.8204   20.7598   10.6362 C   0  0  0  0  0  0  0  0  0  0  0  0
   17.4291   17.3736   12.0500 N   0  0  0  0  0  0  0  0  0  0  0  0
   16.8120   16.0772   12.3636 C   0  0  2  0  0  0  0  0  0  0  0  0
   15.9056   15.5530   11.2096 C   0  0  0  0  0  0  0  0  0  0  0  0
   15.9064   16.0619   10.0898 O   0  0  0  0  0  0  0  0  0  0  0  0
   15.9678   16.2154   13.6254 C   0  0  0  0  0  0  0  0  0  0  0  0
   15.2155   14.3997   11.5069 N   0  0  0  0  0  0  0  0  0  0  0  0
   13.9697   13.9943   10.8480 C   0  0  2  0  0  0  0  0  0  0  0  0
   13.3432   12.8428   11.6692 C   0  0  0  0  0  0  0  0  0  0  0  0
   13.7798   12.4884   12.7631 O   0  0  0  0  0  0  0  0  0  0  0  0
   14.3336   13.5988    9.4096 C   0  0  0  0  0  0  0  0  0  0  0  0
   14.8308   12.1707    9.1970 C   0  0  0  0  0  0  0  0  0  0  0  0
   13.6640   11.2292    8.8844 C   0  0  0  0  0  0  0  0  0  0  0  0
   14.1623    9.8750    8.7013 N   0  0  0  0  0  0  0  0  0  0  0  0
   13.3892    8.8297    8.3371 C   0  0  0  0  0  0  0  0  0  0  0  0
   13.7704    7.7667    7.7208 N   0  0  0  0  0  0  0  0  0  0  0  0
   12.1078    9.0305    8.6985 N   0  0  0  0  0  0  0  0  0  0  0  0
   12.2152   12.2824   11.1074 N   0  0  0  0  0  0  0  0  0  0  0  0
   11.1618   11.6688   11.9132 C   0  0  1  0  0  0  0  0  0  0  0  0
   10.0236   12.6671   12.1670 C   0  0  0  0  0  0  0  0  0  0  0  0
   10.5175   13.9033   12.9329 C   0  0  0  0  0  0  0  0  0  0  0  0
    9.4881   15.0310   12.9388 C   0  0  0  0  0  0  0  0  0  0  0  0
    8.4179   14.9427   14.0350 C   0  0  0  0  0  0  0  0  0  0  0  0
    7.8816   16.2678   14.6046 N   0  0  2  0  0  4  0  0  0  0  0  0
   10.6529   10.4387   11.1411 C   0  0  0  0  0  0  0  0  0  0  0  0
    9.8755   10.5408   10.1959 O   0  0  0  0  0  0  0  0  0  0  0  0
    9.1046   17.0982   15.0316 C   0  0  0  0  0  0  0  0  0  0  0  0
    7.0091   16.0534   15.8332 C   0  0  0  0  0  0  0  0  0  0  0  0
    7.1150   17.0902   13.5701 C   0  0  0  0  0  0  0  0  0  0  0  0
   11.1548    9.2361   11.5885 N   0  0  0  0  0  0  0  0  0  0  0  0
   10.3458    8.0048   11.5364 C   0  0  2  0  0  0  0  0  0  0  0  0
    8.9514    8.2158   10.9170 C   0  0  0  0  0  0  0  0  0  0  0  0
    8.4382    9.3219   10.7759 O   0  0  0  0  0  0  0  0  0  0  0  0
   10.2681    7.2710   12.8779 C   0  0  0  0  0  0  0  0  0  0  0  0
   10.6668    5.9047   12.7005 O   0  0  0  0  0  0  0  0  0  0  0  0
    8.2566    7.0420   10.6987 N   0  0  0  0  0  0  0  0  0  0  0  0
    7.7355    6.6820    9.3737 C   0  0  2  0  0  0  0  0  0  0  0  0
    8.0029    5.1816    9.1352 C   0  0  0  0  0  0  0  0  0  0  0  0
    9.1294    4.6962    9.0380 O   0  0  0  0  0  0  0  0  0  0  0  0
    8.3739    7.5044    8.2369 C   0  0  2  0  0  0  0  0  0  0  0  0
    9.6557    6.9526    7.8885 O   0  0  0  0  0  0  0  0  0  0  0  0
    8.5788    8.9726    8.5903 C   0  0  0  0  0  0  0  0  0  0  0  0
    6.8555    4.4419    8.9148 N   0  0  0  0  0  0  0  0  0  0  0  0
    5.6332    4.7579    9.6333 C   0  0  0  0  0  0  0  0  0  0  0  0
    5.1335    3.5762   10.4550 C   0  0  0  0  0  0  0  0  0  0  0  0
    5.5629    3.2166   11.5401 O   0  0  0  0  0  0  0  0  0  0  0  0
    4.1614    2.8463    9.8562 O   0  0  0  0  0  0  0  0  0  0  0  0
   14.4249    7.2874    8.3389 H   0  0  0  0  0  0  0  0  0  0  0  0
  2  1  1  6
  2  3  1  0
  2  5  1  0
  3  4  2  0
  3 10  1  0
  5  6  1  0
  6  7  1  0
  7  8  1  0
  8  9  1  0
 10 11  1  0
 11 12  1  0
 11 14  1  1
 12 13  2  0
 12 19  1  0
 14 15  1  0
 15 16  1  0
 16 17  2  0
 16 18  1  0
 20 19  1  1
 20 21  1  0
 20 23  1  0
 21 22  2  0
 21 26  1  0
 23 24  1  0
 23 25  1  1
 26 27  1  0
 27 28  1  0
 27 30  1  1
 28 29  2  0
 28 31  1  0
 31 32  1  0
 32 33  1  0
 32 35  1  6
 33 34  2  0
 33 42  1  0
 35 36  1  0
 36 37  1  0
 37 38  1  0
 38 39  1  0
 39 40  2  0
 39 41  1  0
 42 43  1  0
 43 44  1  6
 43 49  1  0
 44 45  1  0
 45 46  1  0
 46 47  1  0
 47 48  1  0
 48 51  1  1
 48 52  1  0
 48 53  1  0
 49 50  2  0
 49 54  1  0
 54 55  1  0
 55 56  1  0
 55 58  1  1
 56 57  2  0
 56 60  1  0
 58 59  1  0
 61 60  1  1
 61 62  1  0
 61 64  1  0
 62 63  2  0
 62 67  1  0
 64 65  1  0
 64 66  1  1
 67 68  1  0
 68 69  1  0
 69 70  2  0
 69 71  1  0
 40 72  1  0
M  CHG  3   1   1   9   1  48   1
M  END
$$$$
