
     RDKit          3D

 72 71  0  0  0  0  0  0  0  0999 V2000
   21.8979   23.4307   15.0073 N   0  0  0  0  0  4  0  0  0  0  0  0
   20.6489   22.7799   14.4760 C   0  0  2  0  0  0  0  0  0  0  0  0
   20.6348   21.2578   14.7315 C   0  0  0  0  0  0  0  0  0  0  0  0
   21.0195   20.4884   13.8562 O   0  0  0  0  0  0  0  0  0  0  0  0
   20.4827   23.1106   12.9775 C   0  0  0  0  0  0  0  0  0  0  0  0
   19.1591   22.5422   12.4229 C   0  0  0  0  0  0  0  0  0  0  0  0
   18.9407   22.7075   10.9123 C   0  0  0  0  0  0  0  0  0  0  0  0
   19.4420   24.0405   10.3565 C   0  0  0  0  0  0  0  0  0  0  0  0
   20.6361   23.8005    9.5083 N   0  0  0  0  0  4  0  0  0  0  0  0
   20.2127   20.8328   15.9745 N   0  0  0  0  0  0  0  0  0  0  0  0
   20.0195   19.4019   16.3079 C   0  0  2  0  0  0  0  0  0  0  0  0
   19.2319   18.6845   15.1957 C   0  0  0  0  0  0  0  0  0  0  0  0
   18.1359   19.0895   14.8160 O   0  0  0  0  0  0  0  0  0  0  0  0
   19.4352   19.1016   17.6898 C   0  0  0  0  0  0  0  0  0  0  0  0
   19.3003   20.3581   18.5553 C   0  0  0  0  0  0  0  0  0  0  0  0
   20.3552   20.4090   19.6362 C   0  0  0  0  0  0  0  0  0  0  0  0
   21.4991   20.8098   19.4582 O   0  0  0  0  0  0  0  0  0  0  0  0
   19.9656   19.8895   20.8351 N   0  0  0  0  0  0  0  0  0  0  0  0
   19.7705   17.5390   14.6740 N   0  0  0  0  0  0  0  0  0  0  0  0
   19.5063   17.1158   13.2819 C   0  0  2  0  0  0  0  0  0  0  0  0
   18.3993   16.0374   13.0965 C   0  0  0  0  0  0  0  0  0  0  0  0
   18.0422   15.6315   11.9930 O   0  0  0  0  0  0  0  0  0  0  0  0
   20.8231   16.6907   12.5879 C   0  0  2  0  0  0  0  0  0  0  0  0
   21.3265   15.4835   13.1961 O   0  0  0  0  0  0  0  0  0  0  0  0
   21.8824   17.7839   12.7258 C   0  0  0  0  0  0  0  0  0  0  0  0
   17.7096   15.6926   14.2438 N   0  0  0  0  0  0  0  0  0  0  0  0
   16.9620   14.4335   14.3677 C   0  0  2  0  0  0  0  0  0  0  0  0
   16.2514   14.0284   13.0413 C   0  0  0  0  0  0  0  0  0  0  0  0
   16.6716   14.3739   11.9381 O   0  0  0  0  0  0  0  0  0  0  0  0
   15.9106   14.5797   15.4618 C   0  0  0  0  0  0  0  0  0  0  0  0
   15.2064   13.1468   13.2016 N   0  0  0  0  0  0  0  0  0  0  0  0
   14.4992   12.5001   12.0917 C   0  0  2  0  0  0  0  0  0  0  0  0
   13.3662   11.6297   12.6846 C   0  0  0  0  0  0  0  0  0  0  0  0
   13.5229   10.9101   13.6698 O   0  0  0  0  0  0  0  0  0  0  0  0
   15.5444   11.6980   11.3030 C   0  0  0  0  0  0  0  0  0  0  0  0
   15.0220   10.8286   10.1615 C   0  0  0  0  0  0  0  0  0  0  0  0
   15.0475   11.5970    8.8369 C   0  0  0  0  0  0  0  0  0  0  0  0
   14.6597   10.7123    7.7494 N   0  0  0  0  0  0  0  0  0  0  0  0
   14.3766   11.1341    6.4984 C   0  0  0  0  0  0  0  0  0  0  0  0
   14.1907   12.3490    6.1181 N   0  0  0  0  0  0  0  0  0  0  0  0
   14.2972   10.0942    5.6468 N   0  0  0  0  0  0  0  0  0  0  0  0
   12.1451   11.7697   12.0591 N   0  0  0  0  0  0  0  0  0  0  0  0
   10.9548   11.0423   12.4943 C   0  0  1  0  0  0  0  0  0  0  0  0
   10.0338   11.9541   13.3171 C   0  0  0  0  0  0  0  0  0  0  0  0
    9.6328   13.2099   12.5292 C   0  0  0  0  0  0  0  0  0  0  0  0
    8.4682   13.9541   13.1784 C   0  0  0  0  0  0  0  0  0  0  0  0
    7.8761   15.1038   12.3523 C   0  0  0  0  0  0  0  0  0  0  0  0
    6.7438   15.9235   12.9955 N   0  0  2  0  0  4  0  0  0  0  0  0
   10.2400   10.5356   11.2291 C   0  0  0  0  0  0  0  0  0  0  0  0
    9.7341   11.3050   10.4165 O   0  0  0  0  0  0  0  0  0  0  0  0
    7.2220   16.3177   14.4039 C   0  0  0  0  0  0  0  0  0  0  0  0
    5.4630   15.1150   13.1452 C   0  0  0  0  0  0  0  0  0  0  0  0
    6.4464   17.2177   12.2399 C   0  0  0  0  0  0  0  0  0  0  0  0
   10.2361    9.1653   11.0859 N   0  0  0  0  0  0  0  0  0  0  0  0
    9.3629    8.5038   10.0993 C   0  0  2  0  0  0  0  0  0  0  0  0
    7.9285    9.0648   10.0797 C   0  0  0  0  0  0  0  0  0  0  0  0
    7.6412   10.1911   10.4741 O   0  0  0  0  0  0  0  0  0  0  0  0
    9.3758    6.9763   10.2035 C   0  0  0  0  0  0  0  0  0  0  0  0
    8.9825    6.5829   11.5256 O   0  0  0  0  0  0  0  0  0  0  0  0
    6.9696    8.1279    9.7469 N   0  0  0  0  0  0  0  0  0  0  0  0
    5.5383    8.4555    9.7219 C   0  0  2  0  0  0  0  0  0  0  0  0
    4.7565    7.1961    9.2952 C   0  0  0  0  0  0  0  0  0  0  0  0
    5.2801    6.2117    8.7746 O   0  0  0  0  0  0  0  0  0  0  0  0
    5.2073    9.6151    8.7616 C   0  0  2  0  0  0  0  0  0  0  0  0
    5.8210    9.3857    7.4811 O   0  0  0  0  0  0  0  0  0  0  0  0
    5.6762   10.9745    9.2664 C   0  0  0  0  0  0  0  0  0  0  0  0
    3.3864    7.3194    9.4362 N   0  0  0  0  0  0  0  0  0  0  0  0
    2.5161    6.1983    9.1261 C   0  0  0  0  0  0  0  0  0  0  0  0
    2.6633    5.0665   10.1353 C   0  0  0  0  0  0  0  0  0  0  0  0
    1.9990    4.0426   10.1759 O   0  0  0  0  0  0  0  0  0  0  0  0
    3.5898    5.2894   11.0987 O   0  0  0  0  0  0  0  0  0  0  0  0
   14.4781   12.9467    6.8929 H   0  0  0  0  0  0  0  0  0  0  0  0
  2  1  1  6
  2  3  1  0
  2  5  1  0
  3  4  2  0
  3 10  1  0
  5  6  1  0
  6  7  1  0
  7  8  1  0
  8  9  1  0
 10 11  1  0
 11 12  1  0
 11 14  1  1
 12 13  2  0
 12 19  1  0
 14 15  1  0
 15 16  1  0
 16 17  2  0
 16 18  1  0
 20 19  1  1
 20 21  1  0
 20 23  1  0
 21 22  2  0
 21 26  1  0
 23 24  1  0
 23 25  1  1
 26 27  1  0
 27 28  1  0
 27 30  1  1
 28 29  2  0
 28 31  1  0
 31 32  1  0
 32 33  1  0
 32 35  1  1
 33 34  2  0
 33 42  1  0
 35 36  1  0
 36 37  1  0
 37 38  1  0
 38 39  1  0
 39 40  2  0
 39 41  1  0
 42 43  1  0
 43 44  1  6
 43 49  1  0
 44 45  1  0
 45 46  1  0
 46 47  1  0
 47 48  1  0
 48 51  1  1
 48 52  1  0
 48 53  1  0
 49 50  2  0
 49 54  1  0
 54 55  1  0
 55 56  1  0
 55 58  1  1
 56 57  2  0
 56 60  1  0
 58 59  1  0
 61 60  1  6
 61 62  1  0
 61 64  1  0
 62 63  2  0
 62 67  1  0
 64 65  1  0
 64 66  1  1
 67 68  1  0
 68 69  1  0
 69 70  2  0
 69 71  1  0
 40 72  1  0
M  CHG  3   1   1   9   1  48   1
M  END
$$$$
