
     RDKit          3D

 72 71  0  0  0  0  0  0  0  0999 V2000
   23.5311   22.7756    9.6217 N   0  0  0  0  0  4  0  0  0  0  0  0
   23.4582   24.1391    8.9883 C   0  0  2  0  0  0  0  0  0  0  0  0
   22.4018   24.2004    7.8647 C   0  0  0  0  0  0  0  0  0  0  0  0
   22.1801   25.2634    7.2927 O   0  0  0  0  0  0  0  0  0  0  0  0
   24.8555   24.5579    8.4839 C   0  0  0  0  0  0  0  0  0  0  0  0
   24.7679   25.7787    7.5436 C   0  0  0  0  0  0  0  0  0  0  0  0
   26.0234   26.6594    7.4713 C   0  0  0  0  0  0  0  0  0  0  0  0
   25.7618   28.1360    7.7684 C   0  0  0  0  0  0  0  0  0  0  0  0
   25.6864   28.8876    6.4908 N   0  0  0  0  0  4  0  0  0  0  0  0
   21.7707   23.0199    7.5298 N   0  0  0  0  0  0  0  0  0  0  0  0
   20.5755   22.5194    8.2489 C   0  0  2  0  0  0  0  0  0  0  0  0
   20.9159   22.2016    9.7169 C   0  0  0  0  0  0  0  0  0  0  0  0
   21.1726   23.0886   10.5273 O   0  0  0  0  0  0  0  0  0  0  0  0
   19.8215   21.3643    7.5869 C   0  0  0  0  0  0  0  0  0  0  0  0
   20.7600   20.3724    6.8930 C   0  0  0  0  0  0  0  0  0  0  0  0
   21.4333   20.9881    5.6883 C   0  0  0  0  0  0  0  0  0  0  0  0
   20.9718   21.9275    5.0516 O   0  0  0  0  0  0  0  0  0  0  0  0
   22.5786   20.3611    5.2955 N   0  0  0  0  0  0  0  0  0  0  0  0
   20.9771   20.8839   10.0835 N   0  0  0  0  0  0  0  0  0  0  0  0
   20.6838   20.4434   11.4644 C   0  0  2  0  0  0  0  0  0  0  0  0
   20.6711   18.9049   11.7000 C   0  0  0  0  0  0  0  0  0  0  0  0
   21.6653   18.2769   12.0568 O   0  0  0  0  0  0  0  0  0  0  0  0
   19.3767   21.0980   11.9735 C   0  0  2  0  0  0  0  0  0  0  0  0
   18.3450   20.9670   10.9741 O   0  0  0  0  0  0  0  0  0  0  0  0
   19.5934   22.5841   12.2580 C   0  0  0  0  0  0  0  0  0  0  0  0
   19.5164   18.2544   11.3071 N   0  0  0  0  0  0  0  0  0  0  0  0
   19.0298   17.0377   11.9723 C   0  0  2  0  0  0  0  0  0  0  0  0
   17.6713   16.5425   11.3911 C   0  0  0  0  0  0  0  0  0  0  0  0
   17.2568   16.9022   10.2903 O   0  0  0  0  0  0  0  0  0  0  0  0
   18.8535   17.3158   13.4607 C   0  0  0  0  0  0  0  0  0  0  0  0
   17.0494   15.5729   12.1447 N   0  0  0  0  0  0  0  0  0  0  0  0
   15.7323   15.0088   11.8330 C   0  0  2  0  0  0  0  0  0  0  0  0
   15.3421   14.0381   12.9725 C   0  0  0  0  0  0  0  0  0  0  0  0
   16.1291   13.6890   13.8510 O   0  0  0  0  0  0  0  0  0  0  0  0
   15.8500   14.3318   10.4598 C   0  0  0  0  0  0  0  0  0  0  0  0
   17.1162   13.5174   10.2040 C   0  0  0  0  0  0  0  0  0  0  0  0
   17.8164   13.9875    8.9256 C   0  0  0  0  0  0  0  0  0  0  0  0
   18.1156   12.8418    8.0808 N   0  0  0  0  0  0  0  0  0  0  0  0
   17.2903   12.3789    7.1177 C   0  0  0  0  0  0  0  0  0  0  0  0
   17.1897   12.8175    5.9124 N   0  0  0  0  0  0  0  0  0  0  0  0
   16.5379   11.3613    7.5774 N   0  0  0  0  0  0  0  0  0  0  0  0
   14.0216   13.6406   12.9636 N   0  0  0  0  0  0  0  0  0  0  0  0
   13.1947   13.6453   14.1684 C   0  0  1  0  0  0  0  0  0  0  0  0
   11.7134   13.8253   13.8076 C   0  0  0  0  0  0  0  0  0  0  0  0
   11.4275   15.2416   13.2871 C   0  0  0  0  0  0  0  0  0  0  0  0
    9.9544   15.6211   13.4189 C   0  0  0  0  0  0  0  0  0  0  0  0
    9.0040   14.9332   12.4298 C   0  0  0  0  0  0  0  0  0  0  0  0
    7.5087   15.2818   12.5308 N   0  0  2  0  0  4  0  0  0  0  0  0
   13.4268   12.3049   14.8879 C   0  0  0  0  0  0  0  0  0  0  0  0
   13.4755   11.2400   14.2780 O   0  0  0  0  0  0  0  0  0  0  0  0
    6.7329   14.1063   11.9111 C   0  0  0  0  0  0  0  0  0  0  0  0
    7.1578   16.5389   11.7476 C   0  0  0  0  0  0  0  0  0  0  0  0
    7.0308   15.4286   13.9744 C   0  0  0  0  0  0  0  0  0  0  0  0
   13.5898   12.4100   16.2520 N   0  0  0  0  0  0  0  0  0  0  0  0
   14.2290   11.3326   17.0293 C   0  0  2  0  0  0  0  0  0  0  0  0
   13.3077   10.1214   17.2668 C   0  0  0  0  0  0  0  0  0  0  0  0
   13.6390    9.1443   17.9318 O   0  0  0  0  0  0  0  0  0  0  0  0
   14.8742   11.8212   18.3290 C   0  0  0  0  0  0  0  0  0  0  0  0
   14.5600   13.2064   18.5288 O   0  0  0  0  0  0  0  0  0  0  0  0
   12.1459   10.1517   16.5202 N   0  0  0  0  0  0  0  0  0  0  0  0
   11.1608    9.0636   16.5705 C   0  0  2  0  0  0  0  0  0  0  0  0
    9.9401    9.4705   15.7198 C   0  0  0  0  0  0  0  0  0  0  0  0
   10.0202    9.8699   14.5587 O   0  0  0  0  0  0  0  0  0  0  0  0
   10.7013    8.7395   18.0059 C   0  0  2  0  0  0  0  0  0  0  0  0
    9.4822    7.9768   17.9732 O   0  0  0  0  0  0  0  0  0  0  0  0
   10.4536    9.9780   18.8587 C   0  0  0  0  0  0  0  0  0  0  0  0
    8.7485    9.4653   16.4214 N   0  0  0  0  0  0  0  0  0  0  0  0
    7.8376   10.5926   16.3228 C   0  0  0  0  0  0  0  0  0  0  0  0
    7.1003   10.6146   14.9898 C   0  0  0  0  0  0  0  0  0  0  0  0
    7.2197    9.8047   14.0836 O   0  0  0  0  0  0  0  0  0  0  0  0
    6.2925   11.6880   14.8119 O   0  0  0  0  0  0  0  0  0  0  0  0
   17.9679   13.4606    5.7678 H   0  0  0  0  0  0  0  0  0  0  0  0
  2  1  1  6
  2  3  1  0
  2  5  1  0
  3  4  2  0
  3 10  1  0
  5  6  1  0
  6  7  1  0
  7  8  1  0
  8  9  1  0
 10 11  1  0
 11 12  1  0
 11 14  1  6
 12 13  2  0
 12 19  1  0
 14 15  1  0
 15 16  1  0
 16 17  2  0
 16 18  1  0
 20 19  1  6
 20 21  1  0
 20 23  1  0
 21 22  2  0
 21 26  1  0
 23 24  1  0
 23 25  1  6
 26 27  1  0
 27 28  1  0
 27 30  1  1
 28 29  2  0
 28 31  1  0
 31 32  1  0
 32 33  1  0
 32 35  1  6
 33 34  2  0
 33 42  1  0
 35 36  1  0
 36 37  1  0
 37 38  1  0
 38 39  1  0
 39 40  2  0
 39 41  1  0
 42 43  1  0
 43 44  1  6
 43 49  1  0
 44 45  1  0
 45 46  1  0
 46 47  1  0
 47 48  1  0
 48 51  1  6
 48 52  1  0
 48 53  1  0
 49 50  2  0
 49 54  1  0
 54 55  1  0
 55 56  1  0
 55 58  1  1
 56 57  2  0
 56 60  1  0
 58 59  1  0
 61 60  1  1
 61 62  1  0
 61 64  1  0
 62 63  2  0
 62 67  1  0
 64 65  1  0
 64 66  1  1
 67 68  1  0
 68 69  1  0
 69 70  2  0
 69 71  1  0
 40 72  1  0
M  CHG  3   1   1   9   1  48   1
M  END
$$$$
