
     RDKit          3D

 72 71  0  0  0  0  0  0  0  0999 V2000
   22.5519   23.9024   15.6638 N   0  0  0  0  0  4  0  0  0  0  0  0
   23.2520   22.8213   16.4429 C   0  0  2  0  0  0  0  0  0  0  0  0
   22.5198   21.4665   16.3405 C   0  0  0  0  0  0  0  0  0  0  0  0
   21.2939   21.4376   16.2881 O   0  0  0  0  0  0  0  0  0  0  0  0
   23.4320   23.2656   17.9100 C   0  0  0  0  0  0  0  0  0  0  0  0
   24.4014   22.3296   18.6628 C   0  0  0  0  0  0  0  0  0  0  0  0
   24.6443   22.6664   20.1409 C   0  0  0  0  0  0  0  0  0  0  0  0
   23.5746   23.5703   20.7537 C   0  0  0  0  0  0  0  0  0  0  0  0
   23.8815   23.7902   22.1891 N   0  0  0  0  0  4  0  0  0  0  0  0
   23.3025   20.3319   16.2766 N   0  0  0  0  0  0  0  0  0  0  0  0
   22.7292   18.9671   16.2075 C   0  0  2  0  0  0  0  0  0  0  0  0
   21.2037   19.0262   16.0048 C   0  0  0  0  0  0  0  0  0  0  0  0
   20.4301   19.1428   16.9521 O   0  0  0  0  0  0  0  0  0  0  0  0
   23.1058   18.0162   17.3455 C   0  0  0  0  0  0  0  0  0  0  0  0
   24.5653   17.5579   17.2683 C   0  0  0  0  0  0  0  0  0  0  0  0
   25.5209   18.7285   17.2834 C   0  0  0  0  0  0  0  0  0  0  0  0
   25.4588   19.6528   18.0851 O   0  0  0  0  0  0  0  0  0  0  0  0
   26.4316   18.7314   16.2687 N   0  0  0  0  0  0  0  0  0  0  0  0
   20.7270   18.8897   14.7286 N   0  0  0  0  0  0  0  0  0  0  0  0
   19.3056   18.5874   14.4544 C   0  0  2  0  0  0  0  0  0  0  0  0
   18.8397   17.1412   14.7925 C   0  0  0  0  0  0  0  0  0  0  0  0
   19.5940   16.1719   14.7548 O   0  0  0  0  0  0  0  0  0  0  0  0
   18.9449   18.9649   12.9972 C   0  0  2  0  0  0  0  0  0  0  0  0
   19.6843   18.1317   12.0809 O   0  0  0  0  0  0  0  0  0  0  0  0
   19.2941   20.4264   12.7168 C   0  0  0  0  0  0  0  0  0  0  0  0
   17.4771   16.9819   14.9625 N   0  0  0  0  0  0  0  0  0  0  0  0
   16.8043   15.6881   14.7808 C   0  0  2  0  0  0  0  0  0  0  0  0
   16.0310   15.6020   13.4307 C   0  0  0  0  0  0  0  0  0  0  0  0
   16.2450   16.3769   12.4997 O   0  0  0  0  0  0  0  0  0  0  0  0
   15.8198   15.4694   15.9239 C   0  0  0  0  0  0  0  0  0  0  0  0
   15.1974   14.5121   13.3206 N   0  0  0  0  0  0  0  0  0  0  0  0
   14.3996   14.2047   12.1293 C   0  0  2  0  0  0  0  0  0  0  0  0
   13.4881   12.9989   12.4580 C   0  0  0  0  0  0  0  0  0  0  0  0
   13.8454   12.0689   13.1794 O   0  0  0  0  0  0  0  0  0  0  0  0
   15.3891   13.9360   10.9863 C   0  0  0  0  0  0  0  0  0  0  0  0
   16.1321   12.6024   11.0230 C   0  0  0  0  0  0  0  0  0  0  0  0
   17.0357   12.4491    9.7959 C   0  0  0  0  0  0  0  0  0  0  0  0
   16.4442   11.4986    8.8672 N   0  0  0  0  0  0  0  0  0  0  0  0
   17.0568   11.0567    7.7481 C   0  0  0  0  0  0  0  0  0  0  0  0
   17.4870    9.8651    7.5240 N   0  0  0  0  0  0  0  0  0  0  0  0
   17.1842   12.0484    6.8463 N   0  0  0  0  0  0  0  0  0  0  0  0
   12.2170   13.0766   11.9286 N   0  0  0  0  0  0  0  0  0  0  0  0
   11.2008   12.0569   12.1798 C   0  0  1  0  0  0  0  0  0  0  0  0
    9.7932   12.6326   11.9709 C   0  0  0  0  0  0  0  0  0  0  0  0
    9.3257   13.4376   13.1924 C   0  0  0  0  0  0  0  0  0  0  0  0
    7.9291   14.0242   13.0000 C   0  0  0  0  0  0  0  0  0  0  0  0
    7.3531   14.7695   14.2114 C   0  0  0  0  0  0  0  0  0  0  0  0
    6.1279   15.6683   13.9686 N   0  0  2  0  0  4  0  0  0  0  0  0
   11.4695   10.8940   11.2084 C   0  0  0  0  0  0  0  0  0  0  0  0
   11.8809   11.0829   10.0667 O   0  0  0  0  0  0  0  0  0  0  0  0
    4.9537   14.7379   13.6173 C   0  0  0  0  0  0  0  0  0  0  0  0
    6.3367   16.6204   12.7996 C   0  0  0  0  0  0  0  0  0  0  0  0
    5.7206   16.4624   15.2086 C   0  0  0  0  0  0  0  0  0  0  0  0
   11.2275    9.6437   11.7341 N   0  0  0  0  0  0  0  0  0  0  0  0
   10.9693    8.4852   10.8596 C   0  0  2  0  0  0  0  0  0  0  0  0
   10.3174    8.8663    9.5171 C   0  0  0  0  0  0  0  0  0  0  0  0
    9.5489    9.8147    9.3877 O   0  0  0  0  0  0  0  0  0  0  0  0
   10.2132    7.3522   11.5588 C   0  0  0  0  0  0  0  0  0  0  0  0
   11.0999    6.2455   11.7736 O   0  0  0  0  0  0  0  0  0  0  0  0
   10.5326    7.9429    8.5126 N   0  0  0  0  0  0  0  0  0  0  0  0
   10.1142    8.1901    7.1268 C   0  0  2  0  0  0  0  0  0  0  0  0
   10.4380    6.9366    6.2881 C   0  0  0  0  0  0  0  0  0  0  0  0
   11.5797    6.5188    6.0984 O   0  0  0  0  0  0  0  0  0  0  0  0
   10.8070    9.4180    6.5034 C   0  0  2  0  0  0  0  0  0  0  0  0
   12.2326    9.3145    6.6637 O   0  0  0  0  0  0  0  0  0  0  0  0
   10.3639   10.7414    7.1155 C   0  0  0  0  0  0  0  0  0  0  0  0
    9.3344    6.3892    5.6600 N   0  0  0  0  0  0  0  0  0  0  0  0
    9.4548    5.1399    4.9287 C   0  0  0  0  0  0  0  0  0  0  0  0
    9.9426    5.3592    3.5021 C   0  0  0  0  0  0  0  0  0  0  0  0
    9.5659    4.7578    2.5083 O   0  0  0  0  0  0  0  0  0  0  0  0
   10.9342    6.2750    3.3818 O   0  0  0  0  0  0  0  0  0  0  0  0
   16.6760    9.2478    7.5625 H   0  0  0  0  0  0  0  0  0  0  0  0
  2  1  1  6
  2  3  1  0
  2  5  1  0
  3  4  2  0
  3 10  1  0
  5  6  1  0
  6  7  1  0
  7  8  1  0
  8  9  1  0
 10 11  1  0
 11 12  1  0
 11 14  1  1
 12 13  2  0
 12 19  1  0
 14 15  1  0
 15 16  1  0
 16 17  2  0
 16 18  1  0
 20 19  1  6
 20 21  1  0
 20 23  1  0
 21 22  2  0
 21 26  1  0
 23 24  1  0
 23 25  1  6
 26 27  1  0
 27 28  1  0
 27 30  1  1
 28 29  2  0
 28 31  1  0
 31 32  1  0
 32 33  1  0
 32 35  1  6
 33 34  2  0
 33 42  1  0
 35 36  1  0
 36 37  1  0
 37 38  1  0
 38 39  1  0
 39 40  2  0
 39 41  1  0
 42 43  1  0
 43 44  1  6
 43 49  1  0
 44 45  1  0
 45 46  1  0
 46 47  1  0
 47 48  1  0
 48 51  1  6
 48 52  1  0
 48 53  1  0
 49 50  2  0
 49 54  1  0
 54 55  1  0
 55 56  1  0
 55 58  1  1
 56 57  2  0
 56 60  1  0
 58 59  1  0
 61 60  1  1
 61 62  1  0
 61 64  1  0
 62 63  2  0
 62 67  1  0
 64 65  1  0
 64 66  1  1
 67 68  1  0
 68 69  1  0
 69 70  2  0
 69 71  1  0
 40 72  1  0
M  CHG  3   1   1   9   1  48   1
M  END
$$$$
