
     RDKit          3D

 72 71  0  0  0  0  0  0  0  0999 V2000
   21.0612   23.7482   14.0188 N   0  0  0  0  0  4  0  0  0  0  0  0
   21.5523   22.4877   13.3585 C   0  0  2  0  0  0  0  0  0  0  0  0
   21.0970   21.2219   14.1152 C   0  0  0  0  0  0  0  0  0  0  0  0
   20.6110   20.2813   13.4944 O   0  0  0  0  0  0  0  0  0  0  0  0
   23.0870   22.5412   13.2033 C   0  0  0  0  0  0  0  0  0  0  0  0
   23.7932   22.3662   14.5645 C   0  0  0  0  0  0  0  0  0  0  0  0
   25.1422   23.0833   14.7157 C   0  0  0  0  0  0  0  0  0  0  0  0
   26.1834   22.2846   15.4999 C   0  0  0  0  0  0  0  0  0  0  0  0
   27.0656   23.2215   16.2394 N   0  0  0  0  0  4  0  0  0  0  0  0
   21.2973   21.1992   15.4803 N   0  0  0  0  0  0  0  0  0  0  0  0
   20.9121   20.0452   16.3265 C   0  0  2  0  0  0  0  0  0  0  0  0
   19.6078   19.4055   15.8151 C   0  0  0  0  0  0  0  0  0  0  0  0
   18.5179   19.6720   16.3155 O   0  0  0  0  0  0  0  0  0  0  0  0
   20.8563   20.3001   17.8342 C   0  0  0  0  0  0  0  0  0  0  0  0
   22.2319   20.6214   18.4261 C   0  0  0  0  0  0  0  0  0  0  0  0
   23.2457   19.5491   18.1004 C   0  0  0  0  0  0  0  0  0  0  0  0
   22.9766   18.3574   18.0095 O   0  0  0  0  0  0  0  0  0  0  0  0
   24.5294   19.9953   17.9917 N   0  0  0  0  0  0  0  0  0  0  0  0
   19.7058   18.4804   14.8105 N   0  0  0  0  0  0  0  0  0  0  0  0
   18.5361   17.7017   14.3495 C   0  0  2  0  0  0  0  0  0  0  0  0
   18.1277   16.4938   15.2422 C   0  0  0  0  0  0  0  0  0  0  0  0
   18.9069   15.9440   16.0171 O   0  0  0  0  0  0  0  0  0  0  0  0
   18.7226   17.2697   12.8749 C   0  0  2  0  0  0  0  0  0  0  0  0
   19.6355   16.1551   12.8056 O   0  0  0  0  0  0  0  0  0  0  0  0
   19.2931   18.4191   12.0444 C   0  0  0  0  0  0  0  0  0  0  0  0
   16.8816   15.9564   14.9786 N   0  0  0  0  0  0  0  0  0  0  0  0
   16.2789   15.9793   13.6385 C   0  0  2  0  0  0  0  0  0  0  0  0
   16.0047   14.5495   13.0829 C   0  0  0  0  0  0  0  0  0  0  0  0
   16.9121   13.7681   12.8015 O   0  0  0  0  0  0  0  0  0  0  0  0
   17.2149   16.7061   12.6796 C   0  0  0  0  0  0  0  0  0  0  0  0
   14.6759   14.1907   13.0655 N   0  0  0  0  0  0  0  0  0  0  0  0
   14.1719   12.9312   12.5086 C   0  0  2  0  0  0  0  0  0  0  0  0
   12.8847   13.2396   11.7080 C   0  0  0  0  0  0  0  0  0  0  0  0
   12.8475   13.2418   10.4785 O   0  0  0  0  0  0  0  0  0  0  0  0
   13.9487   11.9776   13.6912 C   0  0  0  0  0  0  0  0  0  0  0  0
   13.1038   12.5070   14.8479 C   0  0  0  0  0  0  0  0  0  0  0  0
   13.0303   11.4805   15.9822 C   0  0  0  0  0  0  0  0  0  0  0  0
   13.4509   10.1772   15.4920 N   0  0  0  0  0  0  0  0  0  0  0  0
   13.4262    9.0489   16.2329 C   0  0  0  0  0  0  0  0  0  0  0  0
   12.9308    8.9118   17.4123 N   0  0  0  0  0  0  0  0  0  0  0  0
   14.0127    8.0299   15.5768 N   0  0  0  0  0  0  0  0  0  0  0  0
   11.7626   13.4519   12.4811 N   0  0  0  0  0  0  0  0  0  0  0  0
   10.5185   12.7139   12.2743 C   0  0  1  0  0  0  0  0  0  0  0  0
    9.3043   13.6253   12.5019 C   0  0  0  0  0  0  0  0  0  0  0  0
    7.9871   12.8974   12.1957 C   0  0  0  0  0  0  0  0  0  0  0  0
    6.8136   13.8624   12.0427 C   0  0  0  0  0  0  0  0  0  0  0  0
    6.5825   14.8139   13.2242 C   0  0  0  0  0  0  0  0  0  0  0  0
    5.3476   15.7297   13.1604 N   0  0  2  0  0  4  0  0  0  0  0  0
   10.5400   12.1755   10.8328 C   0  0  0  0  0  0  0  0  0  0  0  0
   11.0284   12.8174    9.9067 O   0  0  0  0  0  0  0  0  0  0  0  0
    5.7237   16.9255   12.2679 C   0  0  0  0  0  0  0  0  0  0  0  0
    4.9623   16.2707   14.5299 C   0  0  0  0  0  0  0  0  0  0  0  0
    4.1383   15.0500   12.5203 C   0  0  0  0  0  0  0  0  0  0  0  0
    9.9870   10.9224   10.6833 N   0  0  0  0  0  0  0  0  0  0  0  0
    8.7963   10.7095    9.8405 C   0  0  2  0  0  0  0  0  0  0  0  0
    8.1333    9.3360   10.0557 C   0  0  0  0  0  0  0  0  0  0  0  0
    7.1922    9.1560   10.8229 O   0  0  0  0  0  0  0  0  0  0  0  0
    9.0421   10.9973    8.3569 C   0  0  0  0  0  0  0  0  0  0  0  0
    9.8894    9.9799    7.8054 O   0  0  0  0  0  0  0  0  0  0  0  0
    8.8037    8.2933    9.4461 N   0  0  0  0  0  0  0  0  0  0  0  0
    8.2022    6.9615    9.3010 C   0  0  2  0  0  0  0  0  0  0  0  0
    7.4330    6.9162    7.9647 C   0  0  0  0  0  0  0  0  0  0  0  0
    6.6430    7.7871    7.6022 O   0  0  0  0  0  0  0  0  0  0  0  0
    7.2449    6.6090   10.4568 C   0  0  2  0  0  0  0  0  0  0  0  0
    5.9003    6.9909   10.1176 O   0  0  0  0  0  0  0  0  0  0  0  0
    7.6049    7.2887   11.7724 C   0  0  0  0  0  0  0  0  0  0  0  0
    7.6157    5.7410    7.2591 N   0  0  0  0  0  0  0  0  0  0  0  0
    8.1611    5.7742    5.9131 C   0  0  0  0  0  0  0  0  0  0  0  0
    8.3440    4.3754    5.3376 C   0  0  0  0  0  0  0  0  0  0  0  0
    8.4818    4.0909    4.1581 O   0  0  0  0  0  0  0  0  0  0  0  0
    8.2779    3.3781    6.2527 O   0  0  0  0  0  0  0  0  0  0  0  0
   12.8731    9.8460   17.8173 H   0  0  0  0  0  0  0  0  0  0  0  0
  2  1  1  1
  2  3  1  0
  2  5  1  0
  3  4  2  0
  3 10  1  0
  5  6  1  0
  6  7  1  0
  7  8  1  0
  8  9  1  0
 10 11  1  0
 11 12  1  0
 11 14  1  1
 12 13  2  0
 12 19  1  0
 14 15  1  0
 15 16  1  0
 16 17  2  0
 16 18  1  0
 20 19  1  1
 20 21  1  0
 20 23  1  0
 21 22  2  0
 21 26  1  0
 23 24  1  0
 23 25  1  6
 26 27  1  0
 27 28  1  0
 27 30  1  6
 28 29  2  0
 28 31  1  0
 31 32  1  0
 32 33  1  0
 32 35  1  1
 33 34  2  0
 33 42  1  0
 35 36  1  0
 36 37  1  0
 37 38  1  0
 38 39  1  0
 39 40  2  0
 39 41  1  0
 42 43  1  0
 43 44  1  6
 43 49  1  0
 44 45  1  0
 45 46  1  0
 46 47  1  0
 47 48  1  0
 48 51  1  6
 48 52  1  0
 48 53  1  0
 49 50  2  0
 49 54  1  0
 54 55  1  0
 55 56  1  0
 55 58  1  6
 56 57  2  0
 56 60  1  0
 58 59  1  0
 61 60  1  1
 61 62  1  0
 61 64  1  0
 62 63  2  0
 62 67  1  0
 64 65  1  0
 64 66  1  1
 67 68  1  0
 68 69  1  0
 69 70  2  0
 69 71  1  0
 40 72  1  0
M  CHG  3   1   1   9   1  48   1
M  END
$$$$
