
     RDKit          3D

 72 71  0  0  0  0  0  0  0  0999 V2000
   22.3370   23.9600   14.1121 N   0  0  0  0  0  4  0  0  0  0  0  0
   23.3195   22.9185   13.6474 C   0  0  2  0  0  0  0  0  0  0  0  0
   22.9909   21.5196   14.2108 C   0  0  0  0  0  0  0  0  0  0  0  0
   23.7364   21.0044   15.0384 O   0  0  0  0  0  0  0  0  0  0  0  0
   24.7557   23.3568   14.0044 C   0  0  0  0  0  0  0  0  0  0  0  0
   25.0474   23.1473   15.5055 C   0  0  0  0  0  0  0  0  0  0  0  0
   26.2343   23.9385   16.0733 C   0  0  0  0  0  0  0  0  0  0  0  0
   27.5942   23.4736   15.5522 C   0  0  0  0  0  0  0  0  0  0  0  0
   28.2895   22.7037   16.6137 N   0  0  0  0  0  4  0  0  0  0  0  0
   21.8284   20.9212   13.7696 N   0  0  0  0  0  0  0  0  0  0  0  0
   20.7212   20.5532   14.6832 C   0  0  2  0  0  0  0  0  0  0  0  0
   19.4871   20.0917   13.8859 C   0  0  0  0  0  0  0  0  0  0  0  0
   18.8029   20.8815   13.2397 O   0  0  0  0  0  0  0  0  0  0  0  0
   20.3460   21.5899   15.7441 C   0  0  0  0  0  0  0  0  0  0  0  0
   19.2530   21.0889   16.6931 C   0  0  0  0  0  0  0  0  0  0  0  0
   19.8117   20.1694   17.7543 C   0  0  0  0  0  0  0  0  0  0  0  0
   19.1304   19.6180   18.6102 O   0  0  0  0  0  0  0  0  0  0  0  0
   21.1702   20.0541   17.7480 N   0  0  0  0  0  0  0  0  0  0  0  0
   19.1398   18.7695   13.9624 N   0  0  0  0  0  0  0  0  0  0  0  0
   19.5596   17.7915   12.9357 C   0  0  2  0  0  0  0  0  0  0  0  0
   18.8107   16.4271   12.9486 C   0  0  0  0  0  0  0  0  0  0  0  0
   19.0132   15.5476   12.1146 O   0  0  0  0  0  0  0  0  0  0  0  0
   21.0935   17.5881   12.9795 C   0  0  2  0  0  0  0  0  0  0  0  0
   21.7021   18.2259   11.8378 O   0  0  0  0  0  0  0  0  0  0  0  0
   21.4411   16.1000   12.9489 C   0  0  0  0  0  0  0  0  0  0  0  0
   17.7674   16.3319   13.8504 N   0  0  0  0  0  0  0  0  0  0  0  0
   17.0831   15.0631   14.1357 C   0  0  2  0  0  0  0  0  0  0  0  0
   16.2896   14.5237   12.9079 C   0  0  0  0  0  0  0  0  0  0  0  0
   16.6563   14.7198   11.7502 O   0  0  0  0  0  0  0  0  0  0  0  0
   16.1138   15.2653   15.2949 C   0  0  0  0  0  0  0  0  0  0  0  0
   15.2330   13.7020   13.2292 N   0  0  0  0  0  0  0  0  0  0  0  0
   14.4980   12.8894   12.2546 C   0  0  2  0  0  0  0  0  0  0  0  0
   13.3271   12.1966   12.9908 C   0  0  0  0  0  0  0  0  0  0  0  0
   13.2930   12.0620   14.2129 O   0  0  0  0  0  0  0  0  0  0  0  0
   15.5066   11.9082   11.6400 C   0  0  0  0  0  0  0  0  0  0  0  0
   15.8393   12.1038   10.1625 C   0  0  0  0  0  0  0  0  0  0  0  0
   16.8396   11.0467    9.6856 C   0  0  0  0  0  0  0  0  0  0  0  0
   17.4198   11.4579    8.4167 N   0  0  0  0  0  0  0  0  0  0  0  0
   16.7373   11.4959    7.2524 C   0  0  0  0  0  0  0  0  0  0  0  0
   16.5354   12.5273    6.5104 N   0  0  0  0  0  0  0  0  0  0  0  0
   16.2577   10.2781    6.9362 N   0  0  0  0  0  0  0  0  0  0  0  0
   12.2908   11.7948   12.1744 N   0  0  0  0  0  0  0  0  0  0  0  0
   10.9665   11.4640   12.6960 C   0  0  1  0  0  0  0  0  0  0  0  0
   10.2955   12.7070   13.2971 C   0  0  0  0  0  0  0  0  0  0  0  0
    9.2041   13.2628   12.3706 C   0  0  0  0  0  0  0  0  0  0  0  0
    8.4837   14.4639   12.9789 C   0  0  0  0  0  0  0  0  0  0  0  0
    7.0435   14.6839   12.4973 C   0  0  0  0  0  0  0  0  0  0  0  0
    6.3078   15.9299   13.0208 N   0  0  2  0  0  4  0  0  0  0  0  0
   10.1398   10.9046   11.5247 C   0  0  0  0  0  0  0  0  0  0  0  0
    9.6962   11.6293   10.6381 O   0  0  0  0  0  0  0  0  0  0  0  0
    6.6677   16.0684   14.5104 C   0  0  0  0  0  0  0  0  0  0  0  0
    4.7958   15.7908   12.9154 C   0  0  0  0  0  0  0  0  0  0  0  0
    6.7527   17.2159   12.3263 C   0  0  0  0  0  0  0  0  0  0  0  0
    9.9621    9.5386   11.5526 N   0  0  0  0  0  0  0  0  0  0  0  0
    8.9573    8.8822   10.6965 C   0  0  2  0  0  0  0  0  0  0  0  0
    7.5326    9.4332   10.8941 C   0  0  0  0  0  0  0  0  0  0  0  0
    7.2829   10.4243   11.5737 O   0  0  0  0  0  0  0  0  0  0  0  0
    8.9936    7.3537   10.7787 C   0  0  0  0  0  0  0  0  0  0  0  0
    8.6744    6.9381   12.1138 O   0  0  0  0  0  0  0  0  0  0  0  0
    6.5439    8.6124   10.3873 N   0  0  0  0  0  0  0  0  0  0  0  0
    5.2425    9.1384    9.9554 C   0  0  2  0  0  0  0  0  0  0  0  0
    4.3770    7.9587    9.4668 C   0  0  0  0  0  0  0  0  0  0  0  0
    4.2890    7.6195    8.2873 O   0  0  0  0  0  0  0  0  0  0  0  0
    5.3648   10.1858    8.8309 C   0  0  2  0  0  0  0  0  0  0  0  0
    6.6571   10.8153    8.8814 O   0  0  0  0  0  0  0  0  0  0  0  0
    4.3089   11.2823    8.9047 C   0  0  0  0  0  0  0  0  0  0  0  0
    3.6048    7.3879   10.4619 N   0  0  0  0  0  0  0  0  0  0  0  0
    2.2051    7.0855   10.2177 C   0  0  0  0  0  0  0  0  0  0  0  0
    1.7090    5.9395   11.0904 C   0  0  0  0  0  0  0  0  0  0  0  0
    1.5421    5.9710   12.2996 O   0  0  0  0  0  0  0  0  0  0  0  0
    1.5064    4.7752   10.4273 O   0  0  0  0  0  0  0  0  0  0  0  0
   17.2461   13.2141    6.7622 H   0  0  0  0  0  0  0  0  0  0  0  0
  2  1  1  1
  2  3  1  0
  2  5  1  0
  3  4  2  0
  3 10  1  0
  5  6  1  0
  6  7  1  0
  7  8  1  0
  8  9  1  0
 10 11  1  0
 11 12  1  0
 11 14  1  6
 12 13  2  0
 12 19  1  0
 14 15  1  0
 15 16  1  0
 16 17  2  0
 16 18  1  0
 20 19  1  1
 20 21  1  0
 20 23  1  0
 21 22  2  0
 21 26  1  0
 23 24  1  0
 23 25  1  6
 26 27  1  0
 27 28  1  0
 27 30  1  1
 28 29  2  0
 28 31  1  0
 31 32  1  0
 32 33  1  0
 32 35  1  1
 33 34  2  0
 33 42  1  0
 35 36  1  0
 36 37  1  0
 37 38  1  0
 38 39  1  0
 39 40  2  0
 39 41  1  0
 42 43  1  0
 43 44  1  6
 43 49  1  0
 44 45  1  0
 45 46  1  0
 46 47  1  0
 47 48  1  0
 48 51  1  1
 48 52  1  0
 48 53  1  0
 49 50  2  0
 49 54  1  0
 54 55  1  0
 55 56  1  0
 55 58  1  1
 56 57  2  0
 56 60  1  0
 58 59  1  0
 61 60  1  6
 61 62  1  0
 61 64  1  0
 62 63  2  0
 62 67  1  0
 64 65  1  0
 64 66  1  1
 67 68  1  0
 68 69  1  0
 69 70  2  0
 69 71  1  0
 40 72  1  0
M  CHG  3   1   1   9   1  48   1
M  END
$$$$
