
     RDKit          3D

 72 71  0  0  0  0  0  0  0  0999 V2000
   24.8594   21.9817   18.2444 N   0  0  0  0  0  4  0  0  0  0  0  0
   23.5258   22.5042   17.7813 C   0  0  2  0  0  0  0  0  0  0  0  0
   22.7412   21.4518   16.9694 C   0  0  0  0  0  0  0  0  0  0  0  0
   23.1945   21.0389   15.9063 O   0  0  0  0  0  0  0  0  0  0  0  0
   23.7231   23.8114   16.9848 C   0  0  0  0  0  0  0  0  0  0  0  0
   23.9509   23.5238   15.4856 C   0  0  0  0  0  0  0  0  0  0  0  0
   24.0976   24.7566   14.5824 C   0  0  0  0  0  0  0  0  0  0  0  0
   25.3709   24.7562   13.7364 C   0  0  0  0  0  0  0  0  0  0  0  0
   25.3982   25.9754   12.8903 N   0  0  0  0  0  4  0  0  0  0  0  0
   21.5584   20.9928   17.5119 N   0  0  0  0  0  0  0  0  0  0  0  0
   21.3856   19.6022   17.9940 C   0  0  2  0  0  0  0  0  0  0  0  0
   20.5291   18.7859   17.0082 C   0  0  0  0  0  0  0  0  0  0  0  0
   20.3147   17.5880   17.1769 O   0  0  0  0  0  0  0  0  0  0  0  0
   20.8892   19.4410   19.4323 C   0  0  0  0  0  0  0  0  0  0  0  0
   21.8590   20.0362   20.4577 C   0  0  0  0  0  0  0  0  0  0  0  0
   21.4183   21.4076   20.9145 C   0  0  0  0  0  0  0  0  0  0  0  0
   22.0324   22.0889   21.7266 O   0  0  0  0  0  0  0  0  0  0  0  0
   20.2178   21.8149   20.4125 N   0  0  0  0  0  0  0  0  0  0  0  0
   20.0525   19.4293   15.8976 N   0  0  0  0  0  0  0  0  0  0  0  0
   19.1609   18.7569   14.9282 C   0  0  2  0  0  0  0  0  0  0  0  0
   18.8970   17.2440   15.1818 C   0  0  0  0  0  0  0  0  0  0  0  0
   19.7770   16.4648   15.5402 O   0  0  0  0  0  0  0  0  0  0  0  0
   19.6524   19.0041   13.4813 C   0  0  2  0  0  0  0  0  0  0  0  0
   20.7540   18.1219   13.1837 O   0  0  0  0  0  0  0  0  0  0  0  0
   20.1249   20.4479   13.3118 C   0  0  0  0  0  0  0  0  0  0  0  0
   17.6481   16.7884   14.8029 N   0  0  0  0  0  0  0  0  0  0  0  0
   17.4587   15.5504   14.0341 C   0  0  2  0  0  0  0  0  0  0  0  0
   16.3593   15.6905   12.9385 C   0  0  0  0  0  0  0  0  0  0  0  0
   16.3570   16.6116   12.1233 O   0  0  0  0  0  0  0  0  0  0  0  0
   17.0632   14.4254   14.9837 C   0  0  0  0  0  0  0  0  0  0  0  0
   15.4812   14.6324   12.8747 N   0  0  0  0  0  0  0  0  0  0  0  0
   15.0474   13.9987   11.6254 C   0  0  2  0  0  0  0  0  0  0  0  0
   13.9843   12.9296   11.9716 C   0  0  0  0  0  0  0  0  0  0  0  0
   14.0964   12.1609   12.9252 O   0  0  0  0  0  0  0  0  0  0  0  0
   16.3043   13.4242   10.9562 C   0  0  0  0  0  0  0  0  0  0  0  0
   17.1624   14.4022   10.1567 C   0  0  0  0  0  0  0  0  0  0  0  0
   18.1570   13.6513    9.2665 C   0  0  0  0  0  0  0  0  0  0  0  0
   19.4766   13.6742    9.8781 N   0  0  0  0  0  0  0  0  0  0  0  0
   20.5946   14.0873    9.2440 C   0  0  0  0  0  0  0  0  0  0  0  0
   20.6682   14.5996    8.0661 N   0  0  0  0  0  0  0  0  0  0  0  0
   21.6834   13.8892   10.0109 N   0  0  0  0  0  0  0  0  0  0  0  0
   12.8673   12.9453   11.1630 N   0  0  0  0  0  0  0  0  0  0  0  0
   11.5385   12.5902   11.6567 C   0  0  1  0  0  0  0  0  0  0  0  0
   10.6571   13.8405   11.7858 C   0  0  0  0  0  0  0  0  0  0  0  0
    9.3390   13.5294   12.5099 C   0  0  0  0  0  0  0  0  0  0  0  0
    8.4673   14.7707   12.6857 C   0  0  0  0  0  0  0  0  0  0  0  0
    7.1070   14.5332   13.3548 C   0  0  0  0  0  0  0  0  0  0  0  0
    6.1680   15.7445   13.4920 N   0  0  2  0  0  4  0  0  0  0  0  0
   10.9314   11.5897   10.6575 C   0  0  0  0  0  0  0  0  0  0  0  0
   11.3084   11.5271    9.4904 O   0  0  0  0  0  0  0  0  0  0  0  0
    5.2935   15.4938   14.7331 C   0  0  0  0  0  0  0  0  0  0  0  0
    5.2447   15.8945   12.2913 C   0  0  0  0  0  0  0  0  0  0  0  0
    6.9202   17.0537   13.7255 C   0  0  0  0  0  0  0  0  0  0  0  0
    9.9564   10.7735   11.1882 N   0  0  0  0  0  0  0  0  0  0  0  0
    9.2097    9.8262   10.3405 C   0  0  2  0  0  0  0  0  0  0  0  0
    8.1970    8.9713   11.1254 C   0  0  0  0  0  0  0  0  0  0  0  0
    8.2394    8.8275   12.3436 O   0  0  0  0  0  0  0  0  0  0  0  0
   10.1108    8.9671    9.4493 C   0  0  0  0  0  0  0  0  0  0  0  0
   10.6892    7.9112   10.2290 O   0  0  0  0  0  0  0  0  0  0  0  0
    7.3462    8.2388   10.3207 N   0  0  0  0  0  0  0  0  0  0  0  0
    5.9029    8.5054   10.2694 C   0  0  2  0  0  0  0  0  0  0  0  0
    5.2538    7.4948    9.3016 C   0  0  0  0  0  0  0  0  0  0  0  0
    5.8258    7.0290    8.3167 O   0  0  0  0  0  0  0  0  0  0  0  0
    5.5763    9.9399    9.8088 C   0  0  2  0  0  0  0  0  0  0  0  0
    6.3751   10.2842    8.6633 O   0  0  0  0  0  0  0  0  0  0  0  0
    5.8221   10.9933   10.8823 C   0  0  0  0  0  0  0  0  0  0  0  0
    3.9194    7.2495    9.5687 N   0  0  0  0  0  0  0  0  0  0  0  0
    3.5185    6.0092   10.2099 C   0  0  0  0  0  0  0  0  0  0  0  0
    3.5741    4.8275    9.2499 C   0  0  0  0  0  0  0  0  0  0  0  0
    2.9092    4.6880    8.2351 O   0  0  0  0  0  0  0  0  0  0  0  0
    4.4094    3.8314    9.6324 O   0  0  0  0  0  0  0  0  0  0  0  0
   19.7968   14.3676    7.5897 H   0  0  0  0  0  0  0  0  0  0  0  0
  2  1  1  6
  2  3  1  0
  2  5  1  0
  3  4  2  0
  3 10  1  0
  5  6  1  0
  6  7  1  0
  7  8  1  0
  8  9  1  0
 10 11  1  0
 11 12  1  0
 11 14  1  1
 12 13  2  0
 12 19  1  0
 14 15  1  0
 15 16  1  0
 16 17  2  0
 16 18  1  0
 20 19  1  1
 20 21  1  0
 20 23  1  0
 21 22  2  0
 21 26  1  0
 23 24  1  0
 23 25  1  1
 26 27  1  0
 27 28  1  0
 27 30  1  1
 28 29  2  0
 28 31  1  0
 31 32  1  0
 32 33  1  0
 32 35  1  1
 33 34  2  0
 33 42  1  0
 35 36  1  0
 36 37  1  0
 37 38  1  0
 38 39  1  0
 39 40  2  0
 39 41  1  0
 42 43  1  0
 43 44  1  6
 43 49  1  0
 44 45  1  0
 45 46  1  0
 46 47  1  0
 47 48  1  0
 48 51  1  1
 48 52  1  0
 48 53  1  0
 49 50  2  0
 49 54  1  0
 54 55  1  0
 55 56  1  0
 55 58  1  1
 56 57  2  0
 56 60  1  0
 58 59  1  0
 61 60  1  6
 61 62  1  0
 61 64  1  0
 62 63  2  0
 62 67  1  0
 64 65  1  0
 64 66  1  1
 67 68  1  0
 68 69  1  0
 69 70  2  0
 69 71  1  0
 40 72  1  0
M  CHG  3   1   1   9   1  48   1
M  END
$$$$
