
     RDKit          3D

 72 71  0  0  0  0  0  0  0  0999 V2000
   22.6912   23.1802   15.7617 N   0  0  0  0  0  4  0  0  0  0  0  0
   21.2503   22.7991   15.9721 C   0  0  2  0  0  0  0  0  0  0  0  0
   21.0331   21.2745   15.8691 C   0  0  0  0  0  0  0  0  0  0  0  0
   20.5770   20.7913   14.8372 O   0  0  0  0  0  0  0  0  0  0  0  0
   20.3536   23.5734   14.9828 C   0  0  0  0  0  0  0  0  0  0  0  0
   19.7867   22.6390   13.8929 C   0  0  0  0  0  0  0  0  0  0  0  0
   18.9053   23.3090   12.8293 C   0  0  0  0  0  0  0  0  0  0  0  0
   17.4475   22.8493   12.8543 C   0  0  0  0  0  0  0  0  0  0  0  0
   16.5887   23.9664   13.3208 N   0  0  0  0  0  4  0  0  0  0  0  0
   21.4051   20.5113   16.9569 N   0  0  0  0  0  0  0  0  0  0  0  0
   20.7635   19.2158   17.2825 C   0  0  2  0  0  0  0  0  0  0  0  0
   19.6582   18.8833   16.2628 C   0  0  0  0  0  0  0  0  0  0  0  0
   18.6711   19.6013   16.1228 O   0  0  0  0  0  0  0  0  0  0  0  0
   20.2668   19.0487   18.7200 C   0  0  0  0  0  0  0  0  0  0  0  0
   20.9099   17.8520   19.4275 C   0  0  0  0  0  0  0  0  0  0  0  0
   22.2349   18.2187   20.0549 C   0  0  0  0  0  0  0  0  0  0  0  0
   22.3796   18.4876   21.2414 O   0  0  0  0  0  0  0  0  0  0  0  0
   23.2728   18.3133   19.1758 N   0  0  0  0  0  0  0  0  0  0  0  0
   19.7832   17.7230   15.5468 N   0  0  0  0  0  0  0  0  0  0  0  0
   18.7319   17.2650   14.6130 C   0  0  2  0  0  0  0  0  0  0  0  0
   18.1998   15.8203   14.8425 C   0  0  0  0  0  0  0  0  0  0  0  0
   18.7368   15.0265   15.6115 O   0  0  0  0  0  0  0  0  0  0  0  0
   19.1865   17.4674   13.1473 C   0  0  2  0  0  0  0  0  0  0  0  0
   20.1928   16.4905   12.8101 O   0  0  0  0  0  0  0  0  0  0  0  0
   19.7788   18.8633   12.9545 C   0  0  0  0  0  0  0  0  0  0  0  0
   17.1888   15.4185   13.9897 N   0  0  0  0  0  0  0  0  0  0  0  0
   16.5743   14.0858   14.0657 C   0  0  2  0  0  0  0  0  0  0  0  0
   15.5191   13.8502   12.9435 C   0  0  0  0  0  0  0  0  0  0  0  0
   14.6217   14.6568   12.7048 O   0  0  0  0  0  0  0  0  0  0  0  0
   15.8934   13.9236   15.4200 C   0  0  0  0  0  0  0  0  0  0  0  0
   15.7577   12.7430   12.1611 N   0  0  0  0  0  0  0  0  0  0  0  0
   14.7934   12.1887   11.2056 C   0  0  2  0  0  0  0  0  0  0  0  0
   13.4954   11.8471   11.9747 C   0  0  0  0  0  0  0  0  0  0  0  0
   13.4606   11.0361   12.8988 O   0  0  0  0  0  0  0  0  0  0  0  0
   15.4618   10.9702   10.5526 C   0  0  0  0  0  0  0  0  0  0  0  0
   15.9774   11.1540    9.1270 C   0  0  0  0  0  0  0  0  0  0  0  0
   17.2055   10.2744    8.8750 C   0  0  0  0  0  0  0  0  0  0  0  0
   17.6848   10.4789    7.5170 N   0  0  0  0  0  0  0  0  0  0  0  0
   18.0425    9.4778    6.6847 C   0  0  0  0  0  0  0  0  0  0  0  0
   18.5365    8.3376    7.0179 N   0  0  0  0  0  0  0  0  0  0  0  0
   17.8239    9.8189    5.4006 N   0  0  0  0  0  0  0  0  0  0  0  0
   12.3876   12.5700   11.5845 N   0  0  0  0  0  0  0  0  0  0  0  0
   11.0393   12.0071   11.6033 C   0  0  1  0  0  0  0  0  0  0  0  0
    9.9874   13.1236   11.6639 C   0  0  0  0  0  0  0  0  0  0  0  0
    9.8708   13.7128   13.0774 C   0  0  0  0  0  0  0  0  0  0  0  0
    8.7561   14.7511   13.1823 C   0  0  0  0  0  0  0  0  0  0  0  0
    9.1371   16.0605   13.8859 C   0  0  0  0  0  0  0  0  0  0  0  0
    8.0523   17.1471   13.9882 N   0  0  2  0  0  4  0  0  0  0  0  0
   10.8764   11.1665   10.3246 C   0  0  0  0  0  0  0  0  0  0  0  0
   11.3105   11.5437    9.2394 O   0  0  0  0  0  0  0  0  0  0  0  0
    8.6997   18.3615   14.6766 C   0  0  0  0  0  0  0  0  0  0  0  0
    6.8714   16.7013   14.8388 C   0  0  0  0  0  0  0  0  0  0  0  0
    7.5515   17.6147   12.6227 C   0  0  0  0  0  0  0  0  0  0  0  0
   10.2265    9.9658   10.5097 N   0  0  0  0  0  0  0  0  0  0  0  0
    9.7183    9.1888    9.3646 C   0  0  2  0  0  0  0  0  0  0  0  0
    8.3104    9.6186    8.9112 C   0  0  0  0  0  0  0  0  0  0  0  0
    7.6836   10.5327    9.4387 O   0  0  0  0  0  0  0  0  0  0  0  0
    9.8139    7.6741    9.5672 C   0  0  0  0  0  0  0  0  0  0  0  0
    9.3820    7.3400   10.8935 O   0  0  0  0  0  0  0  0  0  0  0  0
    7.7437    8.7713    7.9790 N   0  0  0  0  0  0  0  0  0  0  0  0
    6.4069    9.0124    7.4206 C   0  0  2  0  0  0  0  0  0  0  0  0
    6.0821    7.8796    6.4253 C   0  0  0  0  0  0  0  0  0  0  0  0
    6.8676    6.9767    6.1389 O   0  0  0  0  0  0  0  0  0  0  0  0
    6.2949   10.3729    6.7045 C   0  0  2  0  0  0  0  0  0  0  0  0
    7.3952   10.5433    5.7940 O   0  0  0  0  0  0  0  0  0  0  0  0
    6.2897   11.5623    7.6573 C   0  0  0  0  0  0  0  0  0  0  0  0
    4.8674    8.0366    5.7834 N   0  0  0  0  0  0  0  0  0  0  0  0
    4.1681    6.8805    5.2498 C   0  0  0  0  0  0  0  0  0  0  0  0
    4.0909    5.7441    6.2616 C   0  0  0  0  0  0  0  0  0  0  0  0
    3.5497    4.6623    6.0944 O   0  0  0  0  0  0  0  0  0  0  0  0
    4.6332    6.0297    7.4701 O   0  0  0  0  0  0  0  0  0  0  0  0
   18.1728    8.1194    7.9454 H   0  0  0  0  0  0  0  0  0  0  0  0
  2  1  1  6
  2  3  1  0
  2  5  1  0
  3  4  2  0
  3 10  1  0
  5  6  1  0
  6  7  1  0
  7  8  1  0
  8  9  1  0
 10 11  1  0
 11 12  1  0
 11 14  1  1
 12 13  2  0
 12 19  1  0
 14 15  1  0
 15 16  1  0
 16 17  2  0
 16 18  1  0
 20 19  1  1
 20 21  1  0
 20 23  1  0
 21 22  2  0
 21 26  1  0
 23 24  1  0
 23 25  1  1
 26 27  1  0
 27 28  1  0
 27 30  1  1
 28 29  2  0
 28 31  1  0
 31 32  1  0
 32 33  1  0
 32 35  1  1
 33 34  2  0
 33 42  1  0
 35 36  1  0
 36 37  1  0
 37 38  1  0
 38 39  1  0
 39 40  2  0
 39 41  1  0
 42 43  1  0
 43 44  1  6
 43 49  1  0
 44 45  1  0
 45 46  1  0
 46 47  1  0
 47 48  1  0
 48 51  1  1
 48 52  1  0
 48 53  1  0
 49 50  2  0
 49 54  1  0
 54 55  1  0
 55 56  1  0
 55 58  1  1
 56 57  2  0
 56 60  1  0
 58 59  1  0
 61 60  1  6
 61 62  1  0
 61 64  1  0
 62 63  2  0
 62 67  1  0
 64 65  1  0
 64 66  1  1
 67 68  1  0
 68 69  1  0
 69 70  2  0
 69 71  1  0
 40 72  1  0
M  CHG  3   1   1   9   1  48   1
M  END
$$$$
