
     RDKit          3D

 28 30  0  0  0  0  0  0  0  0999 V2000
   27.1900   17.1624   97.5581 C   0  0  0  0  0  0  0  0  0  0  0  0
   26.1112   17.4174   98.3434 C   0  0  0  0  0  0  0  0  0  0  0  0
   27.6570   18.1831   96.7266 C   0  0  0  0  0  0  0  0  0  0  0  0
   25.4381   18.6179   98.3808 C   0  0  0  0  0  0  0  0  0  0  0  0
   27.0080   19.4018   96.7361 C   0  0  0  0  0  0  0  0  0  0  0  0
   25.9084   19.6185   97.5553 C   0  0  0  0  0  0  0  0  0  0  0  0
   28.8070   18.0126   95.8453 C   0  0  0  0  0  0  0  0  0  0  0  0
   28.9882   19.0478   94.8687 N   0  0  1  0  0  4  0  0  0  0  0  0
   29.7107   20.6988   96.5378 C   0  0  0  0  0  0  0  0  0  0  0  0
   28.7699   20.3734   95.4072 C   0  0  0  0  0  0  0  0  0  0  0  0
   30.9610   20.0103   96.4244 N   0  0  0  0  0  0  0  0  0  0  0  0
   31.3896   19.5357   95.1377 C   0  0  0  0  0  0  0  0  0  0  0  0
   30.3223   18.9020   94.3156 C   0  0  0  0  0  0  0  0  0  0  0  0
   31.7563   19.8042   97.5633 C   0  0  0  0  0  0  0  0  0  0  0  0
   33.1114   19.2715   97.4609 C   0  0  0  0  0  0  0  0  0  0  0  0
   34.6260   17.6135   96.6767 C   0  0  0  0  0  0  0  0  0  0  0  0
   33.3378   18.0998   96.7620 C   0  0  0  0  0  0  0  0  0  0  0  0
   35.6932   18.2632   97.2687 C   0  0  0  0  0  0  0  0  0  0  0  0
   35.4555   19.4166   97.9543 C   0  0  0  0  0  0  0  0  0  0  0  0
   34.1763   19.9191   98.0513 C   0  0  0  0  0  0  0  0  0  0  0  0
   31.3299   20.0714   98.7160 O   0  0  0  0  0  0  0  0  0  0  0  0
   36.9965   17.7150   97.1469 N   0  0  0  0  0  4  0  0  0  0  0  0
   37.1294   16.3909   96.8385 O   0  0  0  0  0  1  0  0  0  0  0  0
   38.0057   18.4179   97.3157 O   0  0  0  0  0  0  0  0  0  0  0  0
   32.2487   17.4117   96.1421 N   0  0  0  0  0  4  0  0  0  0  0  0
   31.0236   18.0349   96.0901 O   0  0  0  0  0  1  0  0  0  0  0  0
   24.3516   18.8084   99.2003 F   0  0  0  0  0  0  0  0  0  0  0  0
   32.4242   16.2551   95.6567 O   0  0  0  0  0  0  0  0  0  0  0  0
  1  2  2  0
  1  3  1  0
  2  4  1  0
  3  5  2  0
  3  7  1  0
  4  6  2  0
  4 27  1  0
  5  6  1  0
  8  7  1  1
  8 10  1  0
  8 13  1  0
 10  9  1  0
  9 11  1  0
 11 12  1  0
 11 14  1  0
 12 13  1  0
 14 15  1  0
 14 21  2  0
 15 17  1  0
 15 20  2  0
 17 16  2  0
 16 18  1  0
 17 25  1  0
 18 19  2  0
 18 22  1  0
 19 20  1  0
 22 23  1  0
 22 24  2  0
 25 26  1  0
 25 28  2  0
M  CHG  5   8   1  22   1  23  -1  25   1  26  -1
M  END
$$$$
