
     RDKit          3D

 28 30  0  0  0  0  0  0  0  0999 V2000
   26.5905   18.7466   96.3466 C   0  0  0  0  0  0  0  0  0  0  0  0
   25.7119   17.7842   96.7303 C   0  0  0  0  0  0  0  0  0  0  0  0
   27.8955   18.3608   96.0310 C   0  0  0  0  0  0  0  0  0  0  0  0
   26.0148   16.4449   96.8321 C   0  0  0  0  0  0  0  0  0  0  0  0
   28.2377   17.0261   96.1211 C   0  0  0  0  0  0  0  0  0  0  0  0
   27.3067   16.0758   96.5179 C   0  0  0  0  0  0  0  0  0  0  0  0
   28.9152   19.3149   95.6088 C   0  0  0  0  0  0  0  0  0  0  0  0
   28.7711   20.6396   96.1402 N   0  0  1  0  0  4  0  0  0  0  0  0
   30.6008   20.3502   97.7533 C   0  0  0  0  0  0  0  0  0  0  0  0
   29.1609   20.7333   97.5309 C   0  0  0  0  0  0  0  0  0  0  0  0
   31.4203   20.6148   96.6094 N   0  0  0  0  0  0  0  0  0  0  0  0
   30.9911   21.5908   95.6461 C   0  0  0  0  0  0  0  0  0  0  0  0
   29.5439   21.5368   95.3006 C   0  0  0  0  0  0  0  0  0  0  0  0
   32.6306   19.9240   96.4362 C   0  0  0  0  0  0  0  0  0  0  0  0
   33.2361   19.1620   97.5240 C   0  0  0  0  0  0  0  0  0  0  0  0
   34.5689   17.3428   98.2804 C   0  0  0  0  0  0  0  0  0  0  0  0
   34.0052   18.0489   97.2378 C   0  0  0  0  0  0  0  0  0  0  0  0
   34.3866   17.7163   99.5990 C   0  0  0  0  0  0  0  0  0  0  0  0
   33.6264   18.8151   99.8664 C   0  0  0  0  0  0  0  0  0  0  0  0
   33.0545   19.5341   98.8395 C   0  0  0  0  0  0  0  0  0  0  0  0
   33.2391   19.9362   95.3356 O   0  0  0  0  0  0  0  0  0  0  0  0
   34.9918   16.9509  100.6295 N   0  0  0  0  0  4  0  0  0  0  0  0
   34.7158   17.2612  101.9309 O   0  0  0  0  0  1  0  0  0  0  0  0
   35.7607   16.0133  100.3640 O   0  0  0  0  0  0  0  0  0  0  0  0
   34.2067   17.6448   95.8813 N   0  0  0  0  0  4  0  0  0  0  0  0
   35.4745   17.2884   95.4846 O   0  0  0  0  0  1  0  0  0  0  0  0
   25.0758   15.5229   97.2273 F   0  0  0  0  0  0  0  0  0  0  0  0
   33.2297   17.6209   95.0757 O   0  0  0  0  0  0  0  0  0  0  0  0
  1  2  2  0
  1  3  1  0
  2  4  1  0
  3  5  2  0
  3  7  1  0
  4  6  2  0
  4 27  1  0
  5  6  1  0
  8  7  1  6
  8 10  1  0
  8 13  1  0
 10  9  1  0
  9 11  1  0
 11 12  1  0
 11 14  1  0
 12 13  1  0
 14 15  1  0
 14 21  2  0
 15 17  1  0
 15 20  2  0
 17 16  2  0
 16 18  1  0
 17 25  1  0
 18 19  2  0
 18 22  1  0
 19 20  1  0
 22 23  1  0
 22 24  2  0
 25 26  1  0
 25 28  2  0
M  CHG  5   8   1  22   1  23  -1  25   1  26  -1
M  END
$$$$
