
     RDKit          3D

 28 30  0  0  0  0  0  0  0  0999 V2000
   28.3307   20.6125   95.6904 C   0  0  0  0  0  0  0  0  0  0  0  0
   27.7213   19.4667   96.0919 C   0  0  0  0  0  0  0  0  0  0  0  0
   29.6499   20.5346   95.2376 C   0  0  0  0  0  0  0  0  0  0  0  0
   28.3127   18.2233   96.0855 C   0  0  0  0  0  0  0  0  0  0  0  0
   30.2773   19.3048   95.2164 C   0  0  0  0  0  0  0  0  0  0  0  0
   29.6158   18.1587   95.6364 C   0  0  0  0  0  0  0  0  0  0  0  0
   30.3942   21.7047   94.7848 C   0  0  0  0  0  0  0  0  0  0  0  0
   30.6583   22.6900   95.7936 N   0  0  1  0  0  4  0  0  0  0  0  0
   30.8508   21.0188   97.5835 C   0  0  0  0  0  0  0  0  0  0  0  0
   30.1971   22.2891   97.1057 C   0  0  0  0  0  0  0  0  0  0  0  0
   32.1639   20.8416   97.0408 N   0  0  0  0  0  0  0  0  0  0  0  0
   32.8908   21.9870   96.5674 C   0  0  0  0  0  0  0  0  0  0  0  0
   32.0843   22.9608   95.7813 C   0  0  0  0  0  0  0  0  0  0  0  0
   32.7303   19.5583   96.9746 C   0  0  0  0  0  0  0  0  0  0  0  0
   32.1003   18.4123   97.6231 C   0  0  0  0  0  0  0  0  0  0  0  0
   31.4473   17.2563   99.5967 C   0  0  0  0  0  0  0  0  0  0  0  0
   32.0475   18.3477   99.0036 C   0  0  0  0  0  0  0  0  0  0  0  0
   30.8990   16.2289   98.8515 C   0  0  0  0  0  0  0  0  0  0  0  0
   30.9582   16.3058   97.4923 C   0  0  0  0  0  0  0  0  0  0  0  0
   31.5533   17.3873   96.8802 C   0  0  0  0  0  0  0  0  0  0  0  0
   33.8034   19.3481   96.3532 O   0  0  0  0  0  0  0  0  0  0  0  0
   30.2943   15.1315   99.5176 N   0  0  0  0  0  4  0  0  0  0  0  0
   29.8347   14.0808   98.7754 O   0  0  0  0  0  1  0  0  0  0  0  0
   30.1796   15.1162  100.7535 O   0  0  0  0  0  0  0  0  0  0  0  0
   32.6084   19.3990   99.7936 N   0  0  0  0  0  4  0  0  0  0  0  0
   31.9103   19.8352  100.8955 O   0  0  0  0  0  1  0  0  0  0  0  0
   27.6373   17.1031   96.5063 F   0  0  0  0  0  0  0  0  0  0  0  0
   33.7235   19.9066   99.4728 O   0  0  0  0  0  0  0  0  0  0  0  0
  1  2  2  0
  1  3  1  0
  2  4  1  0
  3  5  2  0
  3  7  1  0
  4  6  2  0
  4 27  1  0
  5  6  1  0
  8  7  1  6
  8 10  1  0
  8 13  1  0
 10  9  1  0
  9 11  1  0
 11 12  1  0
 11 14  1  0
 12 13  1  0
 14 15  1  0
 14 21  2  0
 15 17  1  0
 15 20  2  0
 17 16  2  0
 16 18  1  0
 17 25  1  0
 18 19  2  0
 18 22  1  0
 19 20  1  0
 22 23  1  0
 22 24  2  0
 25 26  1  0
 25 28  2  0
M  CHG  5   8   1  22   1  23  -1  25   1  26  -1
M  END
$$$$
