
     RDKit          3D

 28 30  0  0  0  0  0  0  0  0999 V2000
   28.4109   17.5421   94.9287 C   0  0  0  0  0  0  0  0  0  0  0  0
   27.6038   16.4766   95.1706 C   0  0  0  0  0  0  0  0  0  0  0  0
   28.1048   18.7560   95.5483 C   0  0  0  0  0  0  0  0  0  0  0  0
   26.4965   16.5046   95.9885 C   0  0  0  0  0  0  0  0  0  0  0  0
   27.0017   18.8239   96.3760 C   0  0  0  0  0  0  0  0  0  0  0  0
   26.2040   17.7090   96.5950 C   0  0  0  0  0  0  0  0  0  0  0  0
   28.9065   19.9595   95.3552 C   0  0  0  0  0  0  0  0  0  0  0  0
   28.7072   20.9907   96.3324 N   0  0  1  0  0  4  0  0  0  0  0  0
   30.5946   20.2469   97.7173 C   0  0  0  0  0  0  0  0  0  0  0  0
   29.1307   20.5975   97.6594 C   0  0  0  0  0  0  0  0  0  0  0  0
   31.3662   20.9563   96.7418 N   0  0  0  0  0  0  0  0  0  0  0  0
   30.8585   22.1873   96.2018 C   0  0  0  0  0  0  0  0  0  0  0  0
   29.4071   22.1756   95.8705 C   0  0  0  0  0  0  0  0  0  0  0  0
   32.6061   20.4489   96.3210 C   0  0  0  0  0  0  0  0  0  0  0  0
   32.9812   19.0584   96.5583 C   0  0  0  0  0  0  0  0  0  0  0  0
   33.7252   17.3405   98.0258 C   0  0  0  0  0  0  0  0  0  0  0  0
   33.3752   18.6594   97.8225 C   0  0  0  0  0  0  0  0  0  0  0  0
   33.6931   16.4099   97.0038 C   0  0  0  0  0  0  0  0  0  0  0  0
   33.3030   16.8170   95.7632 C   0  0  0  0  0  0  0  0  0  0  0  0
   32.9494   18.1298   95.5392 C   0  0  0  0  0  0  0  0  0  0  0  0
   33.4412   21.1749   95.7231 O   0  0  0  0  0  0  0  0  0  0  0  0
   34.0642   15.0669   97.2730 N   0  0  0  0  0  4  0  0  0  0  0  0
   34.4495   14.7300   98.5395 O   0  0  0  0  0  1  0  0  0  0  0  0
   34.0429   14.2049   96.3801 O   0  0  0  0  0  0  0  0  0  0  0  0
   33.4158   19.6052   98.8938 N   0  0  0  0  0  4  0  0  0  0  0  0
   34.0079   19.2305  100.0774 O   0  0  0  0  0  1  0  0  0  0  0  0
   25.7220   15.3876   96.1895 F   0  0  0  0  0  0  0  0  0  0  0  0
   32.9135   20.7578   98.7407 O   0  0  0  0  0  0  0  0  0  0  0  0
  1  2  2  0
  1  3  1  0
  2  4  1  0
  3  5  2  0
  3  7  1  0
  4  6  2  0
  4 27  1  0
  5  6  1  0
  8  7  1  6
  8 10  1  0
  8 13  1  0
 10  9  1  0
  9 11  1  0
 11 12  1  0
 11 14  1  0
 12 13  1  0
 14 15  1  0
 14 21  2  0
 15 17  1  0
 15 20  2  0
 17 16  2  0
 16 18  1  0
 17 25  1  0
 18 19  2  0
 18 22  1  0
 19 20  1  0
 22 23  1  0
 22 24  2  0
 25 26  1  0
 25 28  2  0
M  CHG  5   8   1  22   1  23  -1  25   1  26  -1
M  END
$$$$
