
     RDKit          3D

 28 30  0  0  0  0  0  0  0  0999 V2000
   26.2684   18.9317   95.7432 C   0  0  0  0  0  0  0  0  0  0  0  0
   25.6583   17.7186   95.7041 C   0  0  0  0  0  0  0  0  0  0  0  0
   27.6426   18.9715   95.9905 C   0  0  0  0  0  0  0  0  0  0  0  0
   26.2996   16.5147   95.8916 C   0  0  0  0  0  0  0  0  0  0  0  0
   28.3211   17.7846   96.1838 C   0  0  0  0  0  0  0  0  0  0  0  0
   27.6568   16.5665   96.1351 C   0  0  0  0  0  0  0  0  0  0  0  0
   28.3926   20.2213   96.0531 C   0  0  0  0  0  0  0  0  0  0  0  0
   29.2103   20.5021   94.9082 N   0  0  1  0  0  4  0  0  0  0  0  0
   30.9457   21.6210   96.2386 C   0  0  0  0  0  0  0  0  0  0  0  0
   30.0047   21.7018   95.0651 C   0  0  0  0  0  0  0  0  0  0  0  0
   31.3490   20.2773   96.5250 N   0  0  0  0  0  0  0  0  0  0  0  0
   31.2725   19.2833   95.4902 C   0  0  0  0  0  0  0  0  0  0  0  0
   30.0370   19.3348   94.6611 C   0  0  0  0  0  0  0  0  0  0  0  0
   31.8141   19.9404   97.8065 C   0  0  0  0  0  0  0  0  0  0  0  0
   32.8931   18.9759   97.9970 C   0  0  0  0  0  0  0  0  0  0  0  0
   33.7775   17.0523   99.0813 C   0  0  0  0  0  0  0  0  0  0  0  0
   32.7460   17.9537   98.9168 C   0  0  0  0  0  0  0  0  0  0  0  0
   34.9500   17.1427   98.3543 C   0  0  0  0  0  0  0  0  0  0  0  0
   35.0812   18.1549   97.4516 C   0  0  0  0  0  0  0  0  0  0  0  0
   34.0629   19.0656   97.2721 C   0  0  0  0  0  0  0  0  0  0  0  0
   31.3176   20.4580   98.8396 O   0  0  0  0  0  0  0  0  0  0  0  0
   35.9764   16.1860   98.5667 N   0  0  0  0  0  4  0  0  0  0  0  0
   37.2557   16.4991   98.2045 O   0  0  0  0  0  1  0  0  0  0  0  0
   35.7269   15.0800   99.0722 O   0  0  0  0  0  0  0  0  0  0  0  0
   31.5419   17.8416   99.6793 N   0  0  0  0  0  4  0  0  0  0  0  0
   31.5151   16.9631  100.7374 O   0  0  0  0  0  1  0  0  0  0  0  0
   25.6201   15.3216   95.8388 F   0  0  0  0  0  0  0  0  0  0  0  0
   30.5317   18.5422   99.3748 O   0  0  0  0  0  0  0  0  0  0  0  0
  1  2  2  0
  1  3  1  0
  2  4  1  0
  3  5  2  0
  3  7  1  0
  4  6  2  0
  4 27  1  0
  5  6  1  0
  8  7  1  1
  8 10  1  0
  8 13  1  0
 10  9  1  0
  9 11  1  0
 11 12  1  0
 11 14  1  0
 12 13  1  0
 14 15  1  0
 14 21  2  0
 15 17  1  0
 15 20  2  0
 17 16  2  0
 16 18  1  0
 17 25  1  0
 18 19  2  0
 18 22  1  0
 19 20  1  0
 22 23  1  0
 22 24  2  0
 25 26  1  0
 25 28  2  0
M  CHG  5   8   1  22   1  23  -1  25   1  26  -1
M  END
$$$$
