
     RDKit          3D

 28 30  0  0  0  0  0  0  0  0999 V2000
   26.3575   19.0480   95.9058 C   0  0  0  0  0  0  0  0  0  0  0  0
   25.3563   18.1777   96.1983 C   0  0  0  0  0  0  0  0  0  0  0  0
   27.5229   18.5421   95.3251 C   0  0  0  0  0  0  0  0  0  0  0  0
   25.4054   16.8220   95.9628 C   0  0  0  0  0  0  0  0  0  0  0  0
   27.6100   17.1873   95.0735 C   0  0  0  0  0  0  0  0  0  0  0  0
   26.5615   16.3339   95.3891 C   0  0  0  0  0  0  0  0  0  0  0  0
   28.6560   19.3908   94.9728 C   0  0  0  0  0  0  0  0  0  0  0  0
   28.9342   20.4540   95.8949 N   0  0  1  0  0  4  0  0  0  0  0  0
   29.7862   18.9301   97.6228 C   0  0  0  0  0  0  0  0  0  0  0  0
   28.8287   20.0409   97.2781 C   0  0  0  0  0  0  0  0  0  0  0  0
   30.9723   18.9618   96.8213 N   0  0  0  0  0  0  0  0  0  0  0  0
   31.3670   20.1937   96.1959 C   0  0  0  0  0  0  0  0  0  0  0  0
   30.2544   20.9714   95.5844 C   0  0  0  0  0  0  0  0  0  0  0  0
   31.7381   17.7970   96.6521 C   0  0  0  0  0  0  0  0  0  0  0  0
   33.1921   17.8507   96.5348 C   0  0  0  0  0  0  0  0  0  0  0  0
   35.3353   18.1473   97.5231 C   0  0  0  0  0  0  0  0  0  0  0  0
   33.9628   18.1012   97.6554 C   0  0  0  0  0  0  0  0  0  0  0  0
   35.9592   17.9507   96.3051 C   0  0  0  0  0  0  0  0  0  0  0  0
   35.1874   17.7049   95.2093 C   0  0  0  0  0  0  0  0  0  0  0  0
   33.8149   17.6547   95.3200 C   0  0  0  0  0  0  0  0  0  0  0  0
   31.1991   16.6621   96.5952 O   0  0  0  0  0  0  0  0  0  0  0  0
   37.3751   18.0098   96.2304 N   0  0  0  0  0  4  0  0  0  0  0  0
   38.0824   18.3309   97.3541 O   0  0  0  0  0  1  0  0  0  0  0  0
   37.9711   17.7756   95.1670 O   0  0  0  0  0  0  0  0  0  0  0  0
   33.3384   18.3075   98.9248 N   0  0  0  0  0  4  0  0  0  0  0  0
   34.1389   18.5297  100.0211 O   0  0  0  0  0  1  0  0  0  0  0  0
   24.3544   15.9973   96.2841 F   0  0  0  0  0  0  0  0  0  0  0  0
   32.0758   18.2832   99.0212 O   0  0  0  0  0  0  0  0  0  0  0  0
  1  2  2  0
  1  3  1  0
  2  4  1  0
  3  5  2  0
  3  7  1  0
  4  6  2  0
  4 27  1  0
  5  6  1  0
  8  7  1  6
  8 10  1  0
  8 13  1  0
 10  9  1  0
  9 11  1  0
 11 12  1  0
 11 14  1  0
 12 13  1  0
 14 15  1  0
 14 21  2  0
 15 17  1  0
 15 20  2  0
 17 16  2  0
 16 18  1  0
 17 25  1  0
 18 19  2  0
 18 22  1  0
 19 20  1  0
 22 23  1  0
 22 24  2  0
 25 26  1  0
 25 28  2  0
M  CHG  5   8   1  22   1  23  -1  25   1  26  -1
M  END
$$$$
