
     RDKit          3D

 28 30  0  0  0  0  0  0  0  0999 V2000
   26.1334   18.8000   95.9549 C   0  0  0  0  0  0  0  0  0  0  0  0
   24.9704   18.1301   96.1646 C   0  0  0  0  0  0  0  0  0  0  0  0
   27.3021   18.0549   95.7814 C   0  0  0  0  0  0  0  0  0  0  0  0
   24.8571   16.7590   96.2193 C   0  0  0  0  0  0  0  0  0  0  0  0
   27.2290   16.6769   95.8297 C   0  0  0  0  0  0  0  0  0  0  0  0
   26.0180   16.0336   96.0466 C   0  0  0  0  0  0  0  0  0  0  0  0
   28.6017   18.6763   95.5506 C   0  0  0  0  0  0  0  0  0  0  0  0
   28.5910   20.1092   95.4812 N   0  0  1  0  0  4  0  0  0  0  0  0
   30.5258   20.3426   96.9765 C   0  0  0  0  0  0  0  0  0  0  0  0
   29.1011   20.7343   96.6829 C   0  0  0  0  0  0  0  0  0  0  0  0
   31.2626   20.0286   95.7896 N   0  0  0  0  0  0  0  0  0  0  0  0
   30.8203   20.5524   94.5268 C   0  0  0  0  0  0  0  0  0  0  0  0
   29.3489   20.4983   94.3060 C   0  0  0  0  0  0  0  0  0  0  0  0
   32.4055   19.2162   95.8654 C   0  0  0  0  0  0  0  0  0  0  0  0
   32.8917   18.7012   97.1418 C   0  0  0  0  0  0  0  0  0  0  0  0
   34.6836   18.2434   98.6376 C   0  0  0  0  0  0  0  0  0  0  0  0
   34.2448   18.7347   97.4254 C   0  0  0  0  0  0  0  0  0  0  0  0
   33.8107   17.7203   99.5734 C   0  0  0  0  0  0  0  0  0  0  0  0
   32.4801   17.6936   99.2806 C   0  0  0  0  0  0  0  0  0  0  0  0
   32.0213   18.1793   98.0756 C   0  0  0  0  0  0  0  0  0  0  0  0
   33.0540   18.9016   94.8348 O   0  0  0  0  0  0  0  0  0  0  0  0
   34.3206   17.2297  100.8035 N   0  0  0  0  0  4  0  0  0  0  0  0
   35.6521   17.3757  101.0711 O   0  0  0  0  0  1  0  0  0  0  0  0
   33.5780   16.6754  101.6295 O   0  0  0  0  0  0  0  0  0  0  0  0
   35.1652   19.2712   96.4720 N   0  0  0  0  0  4  0  0  0  0  0  0
   36.4603   19.5063   96.8711 O   0  0  0  0  0  1  0  0  0  0  0  0
   23.6469   16.1450   96.4355 F   0  0  0  0  0  0  0  0  0  0  0  0
   34.7812   19.5190   95.2908 O   0  0  0  0  0  0  0  0  0  0  0  0
  1  2  2  0
  1  3  1  0
  2  4  1  0
  3  5  2  0
  3  7  1  0
  4  6  2  0
  4 27  1  0
  5  6  1  0
  8  7  1  1
  8 10  1  0
  8 13  1  0
 10  9  1  0
  9 11  1  0
 11 12  1  0
 11 14  1  0
 12 13  1  0
 14 15  1  0
 14 21  2  0
 15 17  1  0
 15 20  2  0
 17 16  2  0
 16 18  1  0
 17 25  1  0
 18 19  2  0
 18 22  1  0
 19 20  1  0
 22 23  1  0
 22 24  2  0
 25 26  1  0
 25 28  2  0
M  CHG  5   8   1  22   1  23  -1  25   1  26  -1
M  END
$$$$
