
     RDKit          3D

 28 30  0  0  0  0  0  0  0  0999 V2000
   26.5638   19.0170   95.4807 C   0  0  0  0  0  0  0  0  0  0  0  0
   25.4209   18.3929   95.8675 C   0  0  0  0  0  0  0  0  0  0  0  0
   27.7295   18.2544   95.3769 C   0  0  0  0  0  0  0  0  0  0  0  0
   25.3255   17.0524   96.1675 C   0  0  0  0  0  0  0  0  0  0  0  0
   27.6739   16.9062   95.6696 C   0  0  0  0  0  0  0  0  0  0  0  0
   26.4833   16.3094   96.0614 C   0  0  0  0  0  0  0  0  0  0  0  0
   29.0081   18.8273   94.9704 C   0  0  0  0  0  0  0  0  0  0  0  0
   29.1125   20.2513   95.1098 N   0  0  1  0  0  4  0  0  0  0  0  0
   29.5513   20.1305   97.5236 C   0  0  0  0  0  0  0  0  0  0  0  0
   28.7121   20.7191   96.4197 C   0  0  0  0  0  0  0  0  0  0  0  0
   30.8786   19.8118   97.0914 N   0  0  0  0  0  0  0  0  0  0  0  0
   31.4229   20.4766   95.9396 C   0  0  0  0  0  0  0  0  0  0  0  0
   30.4799   20.6248   94.7971 C   0  0  0  0  0  0  0  0  0  0  0  0
   31.6361   18.8582   97.7905 C   0  0  0  0  0  0  0  0  0  0  0  0
   31.1834   18.3103   99.0654 C   0  0  0  0  0  0  0  0  0  0  0  0
   31.6539   17.5269  101.2615 C   0  0  0  0  0  0  0  0  0  0  0  0
   32.1026   18.0440  100.0637 C   0  0  0  0  0  0  0  0  0  0  0  0
   30.3152   17.2684  101.4903 C   0  0  0  0  0  0  0  0  0  0  0  0
   29.4206   17.5355  100.4977 C   0  0  0  0  0  0  0  0  0  0  0  0
   29.8481   18.0523   99.2941 C   0  0  0  0  0  0  0  0  0  0  0  0
   32.7348   18.4399   97.3435 O   0  0  0  0  0  0  0  0  0  0  0  0
   29.9129   16.7363  102.7429 N   0  0  0  0  0  4  0  0  0  0  0  0
   30.8405   16.6196  103.7389 O   0  0  0  0  0  1  0  0  0  0  0  0
   28.7405   16.3797  102.9409 O   0  0  0  0  0  0  0  0  0  0  0  0
   33.4919   18.3037   99.8484 N   0  0  0  0  0  4  0  0  0  0  0  0
   34.3707   18.0679  100.8800 O   0  0  0  0  0  1  0  0  0  0  0  0
   24.1353   16.4845   96.5534 F   0  0  0  0  0  0  0  0  0  0  0  0
   33.8885   18.7406   98.7277 O   0  0  0  0  0  0  0  0  0  0  0  0
  1  2  2  0
  1  3  1  0
  2  4  1  0
  3  5  2  0
  3  7  1  0
  4  6  2  0
  4 27  1  0
  5  6  1  0
  8  7  1  1
  8 10  1  0
  8 13  1  0
 10  9  1  0
  9 11  1  0
 11 12  1  0
 11 14  1  0
 12 13  1  0
 14 15  1  0
 14 21  2  0
 15 17  1  0
 15 20  2  0
 17 16  2  0
 16 18  1  0
 17 25  1  0
 18 19  2  0
 18 22  1  0
 19 20  1  0
 22 23  1  0
 22 24  2  0
 25 26  1  0
 25 28  2  0
M  CHG  5   8   1  22   1  23  -1  25   1  26  -1
M  END
$$$$
