
     RDKit          3D

 28 30  0  0  0  0  0  0  0  0999 V2000
   26.4943   18.8660   95.9181 C   0  0  0  0  0  0  0  0  0  0  0  0
   25.5757   17.9616   96.3467 C   0  0  0  0  0  0  0  0  0  0  0  0
   27.7484   18.3955   95.5215 C   0  0  0  0  0  0  0  0  0  0  0  0
   25.7909   16.6036   96.4197 C   0  0  0  0  0  0  0  0  0  0  0  0
   28.0023   17.0396   95.5805 C   0  0  0  0  0  0  0  0  0  0  0  0
   27.0332   16.1506   96.0255 C   0  0  0  0  0  0  0  0  0  0  0  0
   28.8045   19.2824   95.0459 C   0  0  0  0  0  0  0  0  0  0  0  0
   28.6869   20.6509   95.4600 N   0  0  1  0  0  4  0  0  0  0  0  0
   30.2488   20.3713   97.3351 C   0  0  0  0  0  0  0  0  0  0  0  0
   28.8861   20.8272   96.8827 C   0  0  0  0  0  0  0  0  0  0  0  0
   31.2363   20.4933   96.3055 N   0  0  0  0  0  0  0  0  0  0  0  0
   31.0184   21.4170   95.2267 C   0  0  0  0  0  0  0  0  0  0  0  0
   29.6331   21.4290   94.6812 C   0  0  0  0  0  0  0  0  0  0  0  0
   32.4042   19.7153   96.3553 C   0  0  0  0  0  0  0  0  0  0  0  0
   32.6393   18.7609   97.4345 C   0  0  0  0  0  0  0  0  0  0  0  0
   33.9155   18.0281   99.3033 C   0  0  0  0  0  0  0  0  0  0  0  0
   33.7112   18.9413   98.2895 C   0  0  0  0  0  0  0  0  0  0  0  0
   33.0808   16.9414   99.4873 C   0  0  0  0  0  0  0  0  0  0  0  0
   32.0286   16.7761   98.6374 C   0  0  0  0  0  0  0  0  0  0  0  0
   31.8070   17.6768   97.6184 C   0  0  0  0  0  0  0  0  0  0  0  0
   33.2928   19.8119   95.4706 O   0  0  0  0  0  0  0  0  0  0  0  0
   33.3410   16.0354  100.5481 N   0  0  0  0  0  4  0  0  0  0  0  0
   32.3899   15.1107  100.8744 O   0  0  0  0  0  1  0  0  0  0  0  0
   34.4113   16.0737  101.1756 O   0  0  0  0  0  0  0  0  0  0  0  0
   34.5870   20.0581   98.1173 N   0  0  0  0  0  4  0  0  0  0  0  0
   35.3421   20.4710   99.1903 O   0  0  0  0  0  1  0  0  0  0  0  0
   24.8158   15.7435   96.8638 F   0  0  0  0  0  0  0  0  0  0  0  0
   34.6547   20.6431   96.9960 O   0  0  0  0  0  0  0  0  0  0  0  0
  1  2  2  0
  1  3  1  0
  2  4  1  0
  3  5  2  0
  3  7  1  0
  4  6  2  0
  4 27  1  0
  5  6  1  0
  8  7  1  1
  8 10  1  0
  8 13  1  0
 10  9  1  0
  9 11  1  0
 11 12  1  0
 11 14  1  0
 12 13  1  0
 14 15  1  0
 14 21  2  0
 15 17  1  0
 15 20  2  0
 17 16  2  0
 16 18  1  0
 17 25  1  0
 18 19  2  0
 18 22  1  0
 19 20  1  0
 22 23  1  0
 22 24  2  0
 25 26  1  0
 25 28  2  0
M  CHG  5   8   1  22   1  23  -1  25   1  26  -1
M  END
$$$$
