
     RDKit          3D

 28 30  0  0  0  0  0  0  0  0999 V2000
   33.5552   17.6877   94.9319 C   0  0  0  0  0  0  0  0  0  0  0  0
   34.0003   16.4135   94.7783 C   0  0  0  0  0  0  0  0  0  0  0  0
   33.0453   18.0630   96.1771 C   0  0  0  0  0  0  0  0  0  0  0  0
   33.9860   15.4560   95.7677 C   0  0  0  0  0  0  0  0  0  0  0  0
   33.0142   17.1303   97.1948 C   0  0  0  0  0  0  0  0  0  0  0  0
   33.4800   15.8382   96.9931 C   0  0  0  0  0  0  0  0  0  0  0  0
   32.5421   19.4056   96.4464 C   0  0  0  0  0  0  0  0  0  0  0  0
   32.3679   20.2371   95.2904 N   0  0  1  0  0  4  0  0  0  0  0  0
   30.0509   19.5047   94.9312 C   0  0  0  0  0  0  0  0  0  0  0  0
   31.4243   19.6883   94.3399 C   0  0  0  0  0  0  0  0  0  0  0  0
   29.7741   20.4456   95.9744 N   0  0  0  0  0  0  0  0  0  0  0  0
   30.5080   21.6800   96.0224 C   0  0  0  0  0  0  0  0  0  0  0  0
   31.9666   21.5535   95.7518 C   0  0  0  0  0  0  0  0  0  0  0  0
   28.7937   20.1591   96.9381 C   0  0  0  0  0  0  0  0  0  0  0  0
   28.1291   18.8604   96.9871 C   0  0  0  0  0  0  0  0  0  0  0  0
   26.2489   17.4824   96.5140 C   0  0  0  0  0  0  0  0  0  0  0  0
   26.8593   18.7184   96.4580 C   0  0  0  0  0  0  0  0  0  0  0  0
   26.8698   16.3857   97.0824 C   0  0  0  0  0  0  0  0  0  0  0  0
   28.1209   16.5401   97.5999 C   0  0  0  0  0  0  0  0  0  0  0  0
   28.7480   17.7662   97.5540 C   0  0  0  0  0  0  0  0  0  0  0  0
   28.4511   21.0122   97.7964 O   0  0  0  0  0  0  0  0  0  0  0  0
   26.1923   15.1391   97.1110 N   0  0  0  0  0  4  0  0  0  0  0  0
   26.5941   14.1899   98.0074 O   0  0  0  0  0  1  0  0  0  0  0  0
   25.2491   14.9045   96.3387 O   0  0  0  0  0  0  0  0  0  0  0  0
   26.1987   19.8393   95.8655 N   0  0  0  0  0  4  0  0  0  0  0  0
   24.8297   19.8018   95.7384 O   0  0  0  0  0  1  0  0  0  0  0  0
   34.4527   14.1831   95.5438 F   0  0  0  0  0  0  0  0  0  0  0  0
   26.8730   20.8365   95.4718 O   0  0  0  0  0  0  0  0  0  0  0  0
  1  2  2  0
  1  3  1  0
  2  4  1  0
  3  5  2  0
  3  7  1  0
  4  6  2  0
  4 27  1  0
  5  6  1  0
  8  7  1  1
  8 10  1  0
  8 13  1  0
 10  9  1  0
  9 11  1  0
 11 12  1  0
 11 14  1  0
 12 13  1  0
 14 15  1  0
 14 21  2  0
 15 17  1  0
 15 20  2  0
 17 16  2  0
 16 18  1  0
 17 25  1  0
 18 19  2  0
 18 22  1  0
 19 20  1  0
 22 23  1  0
 22 24  2  0
 25 26  1  0
 25 28  2  0
M  CHG  5   8   1  22   1  23  -1  25   1  26  -1
M  END
$$$$
