
     RDKit          3D

 28 30  0  0  0  0  0  0  0  0999 V2000
   27.4878   16.4433   96.4710 C   0  0  0  0  0  0  0  0  0  0  0  0
   26.3177   15.7750   96.2986 C   0  0  0  0  0  0  0  0  0  0  0  0
   27.4585   17.8398   96.4564 C   0  0  0  0  0  0  0  0  0  0  0  0
   25.0942   16.3774   96.1089 C   0  0  0  0  0  0  0  0  0  0  0  0
   26.2499   18.4805   96.2686 C   0  0  0  0  0  0  0  0  0  0  0  0
   25.0777   17.7570   96.0962 C   0  0  0  0  0  0  0  0  0  0  0  0
   28.6579   18.6515   96.6320 C   0  0  0  0  0  0  0  0  0  0  0  0
   28.4407   20.0695   96.6434 N   0  0  1  0  0  4  0  0  0  0  0  0
   30.8273   20.5809   96.9202 C   0  0  0  0  0  0  0  0  0  0  0  0
   29.4242   20.7829   97.4301 C   0  0  0  0  0  0  0  0  0  0  0  0
   30.8668   20.3335   95.5105 N   0  0  0  0  0  0  0  0  0  0  0  0
   29.7708   20.7667   94.6884 C   0  0  0  0  0  0  0  0  0  0  0  0
   28.4198   20.5223   95.2644 C   0  0  0  0  0  0  0  0  0  0  0  0
   31.9687   19.6737   94.9427 C   0  0  0  0  0  0  0  0  0  0  0  0
   33.1294   19.2992   95.7447 C   0  0  0  0  0  0  0  0  0  0  0  0
   34.4756   17.6331   96.7792 C   0  0  0  0  0  0  0  0  0  0  0  0
   33.3729   17.9659   96.0198 C   0  0  0  0  0  0  0  0  0  0  0  0
   35.3409   18.5926   97.2710 C   0  0  0  0  0  0  0  0  0  0  0  0
   35.0888   19.9024   96.9923 C   0  0  0  0  0  0  0  0  0  0  0  0
   33.9929   20.2559   96.2356 C   0  0  0  0  0  0  0  0  0  0  0  0
   31.9968   19.3803   93.7201 O   0  0  0  0  0  0  0  0  0  0  0  0
   36.4591   18.1900   98.0464 N   0  0  0  0  0  4  0  0  0  0  0  0
   36.7956   18.9223   99.1494 O   0  0  0  0  0  1  0  0  0  0  0  0
   37.1274   17.1908   97.7366 O   0  0  0  0  0  0  0  0  0  0  0  0
   32.4909   16.9572   95.5213 N   0  0  0  0  0  4  0  0  0  0  0  0
   32.8758   15.6406   95.6234 O   0  0  0  0  0  1  0  0  0  0  0  0
   23.9474   15.6395   95.9403 F   0  0  0  0  0  0  0  0  0  0  0  0
   31.3839   17.2847   95.0002 O   0  0  0  0  0  0  0  0  0  0  0  0
  1  2  2  0
  1  3  1  0
  2  4  1  0
  3  5  2  0
  3  7  1  0
  4  6  2  0
  4 27  1  0
  5  6  1  0
  8  7  1  6
  8 10  1  0
  8 13  1  0
 10  9  1  0
  9 11  1  0
 11 12  1  0
 11 14  1  0
 12 13  1  0
 14 15  1  0
 14 21  2  0
 15 17  1  0
 15 20  2  0
 17 16  2  0
 16 18  1  0
 17 25  1  0
 18 19  2  0
 18 22  1  0
 19 20  1  0
 22 23  1  0
 22 24  2  0
 25 26  1  0
 25 28  2  0
M  CHG  5   8   1  22   1  23  -1  25   1  26  -1
M  END
$$$$
