
     RDKit          3D

 28 30  0  0  0  0  0  0  0  0999 V2000
   27.8651   17.1153   94.8513 C   0  0  0  0  0  0  0  0  0  0  0  0
   27.0042   16.1586   95.2858 C   0  0  0  0  0  0  0  0  0  0  0  0
   27.9191   18.3222   95.5525 C   0  0  0  0  0  0  0  0  0  0  0  0
   26.1736   16.2913   96.3759 C   0  0  0  0  0  0  0  0  0  0  0  0
   27.1010   18.4932   96.6516 C   0  0  0  0  0  0  0  0  0  0  0  0
   26.2356   17.4877   97.0606 C   0  0  0  0  0  0  0  0  0  0  0  0
   28.8082   19.4133   95.1688 C   0  0  0  0  0  0  0  0  0  0  0  0
   28.5426   20.6714   95.8051 N   0  0  1  0  0  4  0  0  0  0  0  0
   30.1992   20.2913   97.5785 C   0  0  0  0  0  0  0  0  0  0  0  0
   28.7748   20.6395   97.2334 C   0  0  0  0  0  0  0  0  0  0  0  0
   31.1236   20.7007   96.5646 N   0  0  0  0  0  0  0  0  0  0  0  0
   30.7537   21.7515   95.6571 C   0  0  0  0  0  0  0  0  0  0  0  0
   29.3568   21.6774   95.1475 C   0  0  0  0  0  0  0  0  0  0  0  0
   32.3780   20.0776   96.4633 C   0  0  0  0  0  0  0  0  0  0  0  0
   32.9699   19.3672   97.5927 C   0  0  0  0  0  0  0  0  0  0  0  0
   33.9258   17.3979   98.5235 C   0  0  0  0  0  0  0  0  0  0  0  0
   33.3681   18.0511   97.4439 C   0  0  0  0  0  0  0  0  0  0  0  0
   34.0969   18.0207   99.7459 C   0  0  0  0  0  0  0  0  0  0  0  0
   33.7001   19.3175   99.8783 C   0  0  0  0  0  0  0  0  0  0  0  0
   33.1408   19.9879   98.8123 C   0  0  0  0  0  0  0  0  0  0  0  0
   33.0393   20.1085   95.3940 O   0  0  0  0  0  0  0  0  0  0  0  0
   34.6768   17.2977  100.8205 N   0  0  0  0  0  4  0  0  0  0  0  0
   34.7373   17.8831  102.0533 O   0  0  0  0  0  1  0  0  0  0  0  0
   35.1248   16.1520  100.6543 O   0  0  0  0  0  0  0  0  0  0  0  0
   33.2002   17.3878   96.1886 N   0  0  0  0  0  4  0  0  0  0  0  0
   33.7586   16.1413   96.0257 O   0  0  0  0  0  1  0  0  0  0  0  0
   25.3252   15.2814   96.7612 F   0  0  0  0  0  0  0  0  0  0  0  0
   32.5496   17.9485   95.2578 O   0  0  0  0  0  0  0  0  0  0  0  0
  1  2  2  0
  1  3  1  0
  2  4  1  0
  3  5  2  0
  3  7  1  0
  4  6  2  0
  4 27  1  0
  5  6  1  0
  8  7  1  6
  8 10  1  0
  8 13  1  0
 10  9  1  0
  9 11  1  0
 11 12  1  0
 11 14  1  0
 12 13  1  0
 14 15  1  0
 14 21  2  0
 15 17  1  0
 15 20  2  0
 17 16  2  0
 16 18  1  0
 17 25  1  0
 18 19  2  0
 18 22  1  0
 19 20  1  0
 22 23  1  0
 22 24  2  0
 25 26  1  0
 25 28  2  0
M  CHG  5   8   1  22   1  23  -1  25   1  26  -1
M  END
$$$$
