
     RDKit          3D

 28 30  0  0  0  0  0  0  0  0999 V2000
   26.1722   18.9611   96.4204 C   0  0  0  0  0  0  0  0  0  0  0  0
   25.1641   18.1293   96.0501 C   0  0  0  0  0  0  0  0  0  0  0  0
   27.4283   18.4042   96.6725 C   0  0  0  0  0  0  0  0  0  0  0  0
   25.2895   16.7660   95.9034 C   0  0  0  0  0  0  0  0  0  0  0  0
   27.5936   17.0402   96.5362 C   0  0  0  0  0  0  0  0  0  0  0  0
   26.5347   16.2274   96.1552 C   0  0  0  0  0  0  0  0  0  0  0  0
   28.5765   19.2088   97.0757 C   0  0  0  0  0  0  0  0  0  0  0  0
   28.6877   20.4841   96.4281 N   0  0  1  0  0  4  0  0  0  0  0  0
   31.0728   20.7150   96.9681 C   0  0  0  0  0  0  0  0  0  0  0  0
   29.6992   21.3310   97.0236 C   0  0  0  0  0  0  0  0  0  0  0  0
   31.2342   19.8378   95.8480 N   0  0  0  0  0  0  0  0  0  0  0  0
   30.3792   19.9921   94.7036 C   0  0  0  0  0  0  0  0  0  0  0  0
   28.9460   20.2415   95.0204 C   0  0  0  0  0  0  0  0  0  0  0  0
   32.2204   18.8384   95.8737 C   0  0  0  0  0  0  0  0  0  0  0  0
   33.0360   18.6023   97.0610 C   0  0  0  0  0  0  0  0  0  0  0  0
   35.1324   18.0834   98.0580 C   0  0  0  0  0  0  0  0  0  0  0  0
   34.3791   18.3025   96.9231 C   0  0  0  0  0  0  0  0  0  0  0  0
   34.5834   18.1549   99.3248 C   0  0  0  0  0  0  0  0  0  0  0  0
   33.2589   18.4511   99.4457 C   0  0  0  0  0  0  0  0  0  0  0  0
   32.4889   18.6734   98.3249 C   0  0  0  0  0  0  0  0  0  0  0  0
   32.4381   18.1082   94.8731 O   0  0  0  0  0  0  0  0  0  0  0  0
   35.4083   17.9198  100.4554 N   0  0  0  0  0  4  0  0  0  0  0  0
   34.8489   17.9633  101.7009 O   0  0  0  0  0  1  0  0  0  0  0  0
   36.6190   17.6780  100.3262 O   0  0  0  0  0  0  0  0  0  0  0  0
   34.9673   18.2234   95.6225 N   0  0  0  0  0  4  0  0  0  0  0  0
   36.3026   17.9083   95.5247 O   0  0  0  0  0  1  0  0  0  0  0  0
   24.2262   15.9822   95.5253 F   0  0  0  0  0  0  0  0  0  0  0  0
   34.2615   18.4413   94.5937 O   0  0  0  0  0  0  0  0  0  0  0  0
  1  2  2  0
  1  3  1  0
  2  4  1  0
  3  5  2  0
  3  7  1  0
  4  6  2  0
  4 27  1  0
  5  6  1  0
  8  7  1  1
  8 10  1  0
  8 13  1  0
 10  9  1  0
  9 11  1  0
 11 12  1  0
 11 14  1  0
 12 13  1  0
 14 15  1  0
 14 21  2  0
 15 17  1  0
 15 20  2  0
 17 16  2  0
 16 18  1  0
 17 25  1  0
 18 19  2  0
 18 22  1  0
 19 20  1  0
 22 23  1  0
 22 24  2  0
 25 26  1  0
 25 28  2  0
M  CHG  5   8   1  22   1  23  -1  25   1  26  -1
M  END
$$$$
