
     RDKit          3D

 28 30  0  0  0  0  0  0  0  0999 V2000
   26.6392   19.2038   96.2632 C   0  0  0  0  0  0  0  0  0  0  0  0
   26.2433   17.9310   96.0013 C   0  0  0  0  0  0  0  0  0  0  0  0
   28.0092   19.4681   96.3307 C   0  0  0  0  0  0  0  0  0  0  0  0
   27.0997   16.8727   95.7955 C   0  0  0  0  0  0  0  0  0  0  0  0
   28.8999   18.4322   96.1299 C   0  0  0  0  0  0  0  0  0  0  0  0
   28.4505   17.1458   95.8647 C   0  0  0  0  0  0  0  0  0  0  0  0
   28.5388   20.7992   96.6060 C   0  0  0  0  0  0  0  0  0  0  0  0
   29.1287   21.4675   95.4819 N   0  0  1  0  0  4  0  0  0  0  0  0
   31.1421   22.1103   96.7336 C   0  0  0  0  0  0  0  0  0  0  0  0
   29.9943   22.5613   95.8685 C   0  0  0  0  0  0  0  0  0  0  0  0
   31.5297   20.7579   96.4670 N   0  0  0  0  0  0  0  0  0  0  0  0
   31.2050   20.1695   95.1970 C   0  0  0  0  0  0  0  0  0  0  0  0
   29.8348   20.4704   94.6983 C   0  0  0  0  0  0  0  0  0  0  0  0
   32.2204   20.0191   97.4412 C   0  0  0  0  0  0  0  0  0  0  0  0
   32.7290   18.6793   97.1637 C   0  0  0  0  0  0  0  0  0  0  0  0
   32.8248   16.3584   97.6757 C   0  0  0  0  0  0  0  0  0  0  0  0
   32.3328   17.6167   97.9552 C   0  0  0  0  0  0  0  0  0  0  0  0
   33.6999   16.1314   96.6297 C   0  0  0  0  0  0  0  0  0  0  0  0
   34.0818   17.1877   95.8582 C   0  0  0  0  0  0  0  0  0  0  0  0
   33.6020   18.4524   96.1205 C   0  0  0  0  0  0  0  0  0  0  0  0
   32.4269   20.4848   98.5911 O   0  0  0  0  0  0  0  0  0  0  0  0
   34.1724   14.8149   96.3904 N   0  0  0  0  0  4  0  0  0  0  0  0
   33.8404   13.8243   97.2705 O   0  0  0  0  0  1  0  0  0  0  0  0
   34.8765   14.5566   95.4012 O   0  0  0  0  0  0  0  0  0  0  0  0
   31.4287   17.8288   99.0421 N   0  0  0  0  0  4  0  0  0  0  0  0
   30.7087   19.0003   99.0770 O   0  0  0  0  0  1  0  0  0  0  0  0
   26.6307   15.6078   95.5346 F   0  0  0  0  0  0  0  0  0  0  0  0
   31.3049   16.9486   99.9442 O   0  0  0  0  0  0  0  0  0  0  0  0
  1  2  2  0
  1  3  1  0
  2  4  1  0
  3  5  2  0
  3  7  1  0
  4  6  2  0
  4 27  1  0
  5  6  1  0
  8  7  1  1
  8 10  1  0
  8 13  1  0
 10  9  1  0
  9 11  1  0
 11 12  1  0
 11 14  1  0
 12 13  1  0
 14 15  1  0
 14 21  2  0
 15 17  1  0
 15 20  2  0
 17 16  2  0
 16 18  1  0
 17 25  1  0
 18 19  2  0
 18 22  1  0
 19 20  1  0
 22 23  1  0
 22 24  2  0
 25 26  1  0
 25 28  2  0
M  CHG  5   8   1  22   1  23  -1  25   1  26  -1
M  END
$$$$
