
     RDKit          3D

 28 30  0  0  0  0  0  0  0  0999 V2000
   27.0485   17.3574   95.3405 C   0  0  0  0  0  0  0  0  0  0  0  0
   25.8870   16.6930   95.1061 C   0  0  0  0  0  0  0  0  0  0  0  0
   27.2382   17.9308   96.6000 C   0  0  0  0  0  0  0  0  0  0  0  0
   24.8739   16.5415   96.0261 C   0  0  0  0  0  0  0  0  0  0  0  0
   26.2444   17.8003   97.5498 C   0  0  0  0  0  0  0  0  0  0  0  0
   25.0725   17.1122   97.2666 C   0  0  0  0  0  0  0  0  0  0  0  0
   28.4483   18.6649   96.9536 C   0  0  0  0  0  0  0  0  0  0  0  0
   28.6188   19.9223   96.2842 N   0  0  1  0  0  4  0  0  0  0  0  0
   30.9354   20.1866   97.0568 C   0  0  0  0  0  0  0  0  0  0  0  0
   29.5604   20.7934   96.9547 C   0  0  0  0  0  0  0  0  0  0  0  0
   31.2141   19.2795   95.9847 N   0  0  0  0  0  0  0  0  0  0  0  0
   30.4793   19.3950   94.7553 C   0  0  0  0  0  0  0  0  0  0  0  0
   29.0201   19.6422   94.9177 C   0  0  0  0  0  0  0  0  0  0  0  0
   32.1973   18.2888   96.1391 C   0  0  0  0  0  0  0  0  0  0  0  0
   33.3480   18.4865   97.0152 C   0  0  0  0  0  0  0  0  0  0  0  0
   35.7014   18.6078   97.3395 C   0  0  0  0  0  0  0  0  0  0  0  0
   34.6274   18.4175   96.4946 C   0  0  0  0  0  0  0  0  0  0  0  0
   35.5342   18.8647   98.6876 C   0  0  0  0  0  0  0  0  0  0  0  0
   34.2680   18.9298   99.1869 C   0  0  0  0  0  0  0  0  0  0  0  0
   33.1818   18.7426   98.3600 C   0  0  0  0  0  0  0  0  0  0  0  0
   32.1231   17.1924   95.5274 O   0  0  0  0  0  0  0  0  0  0  0  0
   36.6771   19.0520   99.5077 N   0  0  0  0  0  4  0  0  0  0  0  0
   37.9126   19.0644   98.9251 O   0  0  0  0  0  1  0  0  0  0  0  0
   36.5675   19.2030  100.7349 O   0  0  0  0  0  0  0  0  0  0  0  0
   34.8232   18.1529   95.1034 N   0  0  0  0  0  4  0  0  0  0  0  0
   35.9094   17.3981   94.7258 O   0  0  0  0  0  1  0  0  0  0  0  0
   23.7226   15.8559   95.7221 F   0  0  0  0  0  0  0  0  0  0  0  0
   34.0063   18.6102   94.2504 O   0  0  0  0  0  0  0  0  0  0  0  0
  1  2  2  0
  1  3  1  0
  2  4  1  0
  3  5  2  0
  3  7  1  0
  4  6  2  0
  4 27  1  0
  5  6  1  0
  8  7  1  1
  8 10  1  0
  8 13  1  0
 10  9  1  0
  9 11  1  0
 11 12  1  0
 11 14  1  0
 12 13  1  0
 14 15  1  0
 14 21  2  0
 15 17  1  0
 15 20  2  0
 17 16  2  0
 16 18  1  0
 17 25  1  0
 18 19  2  0
 18 22  1  0
 19 20  1  0
 22 23  1  0
 22 24  2  0
 25 26  1  0
 25 28  2  0
M  CHG  5   8   1  22   1  23  -1  25   1  26  -1
M  END
$$$$
