
     RDKit          3D

 25 28  0  0  0  0  0  0  0  0999 V2000
   11.2978    7.1012  -15.2825 C   0  0  0  0  0  0  0  0  0  0  0  0
   10.2082    7.9214  -15.5521 C   0  0  0  0  0  0  0  0  0  0  0  0
   10.0628    8.5410  -16.7714 C   0  0  0  0  0  0  0  0  0  0  0  0
   11.0279    8.3300  -17.7292 C   0  0  0  0  0  0  0  0  0  0  0  0
   12.1309    7.5247  -17.5142 C   0  0  0  0  0  0  0  0  0  0  0  0
   12.2395    6.9253  -16.2858 C   0  0  0  0  0  0  0  0  0  0  0  0
    9.4801    7.4450  -13.3280 C   0  0  0  0  0  0  0  0  0  0  0  0
    9.2688    8.1034  -14.5524 C   0  0  0  0  0  0  0  0  0  0  0  0
   11.4405    6.5010  -14.0916 N   0  0  0  0  0  0  0  0  0  0  0  0
   10.5543    6.6456  -13.0834 C   0  0  0  0  0  0  0  0  0  0  0  0
    7.4478    8.4414  -12.6014 C   0  0  0  0  0  0  0  0  0  0  0  0
    7.2849    9.0509  -13.7832 N   0  0  0  0  0  0  0  0  0  0  0  0
    8.1809    8.9034  -14.7871 C   0  0  0  0  0  0  0  0  0  0  0  0
    8.5400    7.6309  -12.3490 C   0  0  0  0  0  0  0  0  0  0  0  0
   10.7608    6.0235  -11.8275 N   0  0  0  0  0  0  0  0  0  0  0  0
   11.9948    5.3473  -11.5147 C   0  0  0  0  0  0  0  0  0  0  0  0
   12.7774    4.8848  -12.5366 C   0  0  0  0  0  0  0  0  0  0  0  0
   13.9900    4.2402  -12.2687 C   0  0  0  0  0  0  0  0  0  0  0  0
   14.4066    4.0647  -10.9744 C   0  0  0  0  0  0  0  0  0  0  0  0
   13.6406    4.5177   -9.9431 C   0  0  0  0  0  0  0  0  0  0  0  0
   12.4301    5.1613  -10.2178 C   0  0  0  0  0  0  0  0  0  0  0  0
   14.9529    3.6672  -13.5938 Cl  0  0  0  0  0  0  0  0  0  0  0  0
   13.1436    7.3181  -18.5450 C   0  0  0  0  0  0  0  0  0  0  0  0
   13.1266    7.9064  -19.7788 O   0  0  0  0  0  0  0  0  0  0  0  0
   14.0948    6.5426  -18.2691 O   0  0  0  0  0  0  0  0  0  0  0  0
  2  1  1  0
  1  6  2  0
  9  1  1  0
  2  3  2  0
  8  2  1  0
  3  4  1  0
  4  5  2  0
  6  5  1  0
  5 23  1  0
  7  8  2  0
  7 10  1  0
 14  7  1  0
  8 13  1  0
 10  9  2  0
 10 15  1  0
 11 12  1  0
 11 14  2  0
 12 13  2  0
 15 16  1  0
 16 17  2  0
 16 21  1  0
 17 18  1  0
 18 19  2  0
 18 22  1  0
 19 20  1  0
 20 21  2  0
 23 24  1  0
 23 25  2  0
M  END
$$$$
