
     RDKit          3D

 25 28  0  0  0  0  0  0  0  0999 V2000
   12.3279    6.0387  -14.6024 C   0  0  0  0  0  0  0  0  0  0  0  0
   13.2948    5.1178  -14.2155 C   0  0  0  0  0  0  0  0  0  0  0  0
   14.2721    4.6970  -15.0870 C   0  0  0  0  0  0  0  0  0  0  0  0
   14.2734    5.2116  -16.3631 C   0  0  0  0  0  0  0  0  0  0  0  0
   13.3361    6.1292  -16.7999 C   0  0  0  0  0  0  0  0  0  0  0  0
   12.3784    6.5232  -15.9012 C   0  0  0  0  0  0  0  0  0  0  0  0
   12.2176    5.0963  -12.0840 C   0  0  0  0  0  0  0  0  0  0  0  0
   13.2453    4.6283  -12.9220 C   0  0  0  0  0  0  0  0  0  0  0  0
   11.3730    6.4451  -13.7527 N   0  0  0  0  0  0  0  0  0  0  0  0
   11.2796    5.9987  -12.4820 C   0  0  0  0  0  0  0  0  0  0  0  0
   13.1399    3.6917  -10.4024 C   0  0  0  0  0  0  0  0  0  0  0  0
   14.1026    3.2716  -11.2340 N   0  0  0  0  0  0  0  0  0  0  0  0
   14.1859    3.7216  -12.5079 C   0  0  0  0  0  0  0  0  0  0  0  0
   12.1834    4.6065  -10.8051 C   0  0  0  0  0  0  0  0  0  0  0  0
   10.2334    6.4254  -11.6274 N   0  0  0  0  0  0  0  0  0  0  0  0
    9.2807    7.4244  -12.0423 C   0  0  0  0  0  0  0  0  0  0  0  0
    8.9405    7.5106  -13.3642 C   0  0  0  0  0  0  0  0  0  0  0  0
    8.0054    8.4567  -13.7982 C   0  0  0  0  0  0  0  0  0  0  0  0
    7.4196    9.3101  -12.8993 C   0  0  0  0  0  0  0  0  0  0  0  0
    7.7461    9.2402  -11.5787 C   0  0  0  0  0  0  0  0  0  0  0  0
    8.6810    8.2921  -11.1516 C   0  0  0  0  0  0  0  0  0  0  0  0
    7.6021    8.5340  -15.4843 Cl  0  0  0  0  0  0  0  0  0  0  0  0
   13.3559    6.6591  -18.1600 C   0  0  0  0  0  0  0  0  0  0  0  0
   12.3618    7.4176  -18.7121 O   0  0  0  0  0  0  0  0  0  0  0  0
   14.3629    6.3936  -18.8656 O   0  0  0  0  0  0  0  0  0  0  0  0
  2  1  1  0
  1  6  2  0
  9  1  1  0
  2  3  2  0
  8  2  1  0
  3  4  1  0
  4  5  2  0
  6  5  1  0
  5 23  1  0
  7  8  2  0
  7 10  1  0
 14  7  1  0
  8 13  1  0
 10  9  2  0
 10 15  1  0
 11 12  1  0
 11 14  2  0
 12 13  2  0
 15 16  1  0
 16 17  2  0
 16 21  1  0
 17 18  1  0
 18 19  2  0
 18 22  1  0
 19 20  1  0
 20 21  2  0
 23 24  1  0
 23 25  2  0
M  END
$$$$
