
     RDKit          3D

 25 28  0  0  0  0  0  0  0  0999 V2000
   12.3910    5.9188  -14.5446 C   0  0  0  0  0  0  0  0  0  0  0  0
   13.3201    4.9996  -14.0707 C   0  0  0  0  0  0  0  0  0  0  0  0
   14.3475    4.5461  -14.8647 C   0  0  0  0  0  0  0  0  0  0  0  0
   14.4381    5.0259  -16.1511 C   0  0  0  0  0  0  0  0  0  0  0  0
   13.5418    5.9402  -16.6727 C   0  0  0  0  0  0  0  0  0  0  0  0
   12.5319    6.3675  -15.8496 C   0  0  0  0  0  0  0  0  0  0  0  0
   12.1055    5.0461  -12.0149 C   0  0  0  0  0  0  0  0  0  0  0  0
   13.1805    4.5458  -12.7709 C   0  0  0  0  0  0  0  0  0  0  0  0
   11.3871    6.3571  -13.7705 N   0  0  0  0  0  0  0  0  0  0  0  0
   11.2057    5.9462  -12.4974 C   0  0  0  0  0  0  0  0  0  0  0  0
   12.8998    3.6788  -10.2399 C   0  0  0  0  0  0  0  0  0  0  0  0
   13.9101    3.2272  -10.9949 N   0  0  0  0  0  0  0  0  0  0  0  0
   14.0817    3.6417  -12.2720 C   0  0  0  0  0  0  0  0  0  0  0  0
   11.9821    4.5913  -10.7285 C   0  0  0  0  0  0  0  0  0  0  0  0
   10.1106    6.4057  -11.7250 N   0  0  0  0  0  0  0  0  0  0  0  0
    9.2368    7.4486  -12.2011 C   0  0  0  0  0  0  0  0  0  0  0  0
    8.8176    8.4149  -11.3287 C   0  0  0  0  0  0  0  0  0  0  0  0
    7.9838    9.4517  -11.7620 C   0  0  0  0  0  0  0  0  0  0  0  0
    7.5768    9.5086  -13.0700 C   0  0  0  0  0  0  0  0  0  0  0  0
    7.9831    8.5548  -13.9537 C   0  0  0  0  0  0  0  0  0  0  0  0
    8.8166    7.5217  -13.5141 C   0  0  0  0  0  0  0  0  0  0  0  0
    7.4737   10.6575  -10.6231 Cl  0  0  0  0  0  0  0  0  0  0  0  0
   13.6566    6.4329  -18.0420 C   0  0  0  0  0  0  0  0  0  0  0  0
   14.7392    6.2303  -18.8516 O   0  0  0  0  0  0  0  0  0  0  0  0
   12.6859    7.0889  -18.5001 O   0  0  0  0  0  0  0  0  0  0  0  0
  2  1  1  0
  1  6  2  0
  9  1  1  0
  2  3  2  0
  8  2  1  0
  3  4  1  0
  4  5  2  0
  6  5  1  0
  5 23  1  0
  7  8  2  0
  7 10  1  0
 14  7  1  0
  8 13  1  0
 10  9  2  0
 10 15  1  0
 11 12  1  0
 11 14  2  0
 12 13  2  0
 15 16  1  0
 16 17  2  0
 16 21  1  0
 17 18  1  0
 18 19  2  0
 18 22  1  0
 19 20  1  0
 20 21  2  0
 23 24  1  0
 23 25  2  0
M  END
$$$$
