
     RDKit          3D

 25 28  0  0  0  0  0  0  0  0999 V2000
   12.6844    6.0620  -14.5093 C   0  0  0  0  0  0  0  0  0  0  0  0
   13.6482    5.1565  -14.0806 C   0  0  0  0  0  0  0  0  0  0  0  0
   14.6665    4.7483  -14.9102 C   0  0  0  0  0  0  0  0  0  0  0  0
   14.7125    5.2602  -16.1866 C   0  0  0  0  0  0  0  0  0  0  0  0
   13.7804    6.1628  -16.6639 C   0  0  0  0  0  0  0  0  0  0  0  0
   12.7810    6.5444  -15.8063 C   0  0  0  0  0  0  0  0  0  0  0  0
   12.4849    5.1235  -11.9949 C   0  0  0  0  0  0  0  0  0  0  0  0
   13.5530    4.6690  -12.7889 C   0  0  0  0  0  0  0  0  0  0  0  0
   11.6895    6.4559  -13.7006 N   0  0  0  0  0  0  0  0  0  0  0  0
   11.5507    6.0109  -12.4335 C   0  0  0  0  0  0  0  0  0  0  0  0
   13.3582    3.7364  -10.2732 C   0  0  0  0  0  0  0  0  0  0  0  0
   14.3603    3.3289  -11.0634 N   0  0  0  0  0  0  0  0  0  0  0  0
   14.4891    3.7773  -12.3341 C   0  0  0  0  0  0  0  0  0  0  0  0
   12.4056    4.6359  -10.7172 C   0  0  0  0  0  0  0  0  0  0  0  0
   10.4641    6.4237  -11.6237 N   0  0  0  0  0  0  0  0  0  0  0  0
    9.5031    7.3926  -12.0878 C   0  0  0  0  0  0  0  0  0  0  0  0
    8.7231    8.0462  -11.1740 C   0  0  0  0  0  0  0  0  0  0  0  0
    7.7931    9.0057  -11.5889 C   0  0  0  0  0  0  0  0  0  0  0  0
    7.6536    9.3005  -12.9206 C   0  0  0  0  0  0  0  0  0  0  0  0
    8.4209    8.6596  -13.8458 C   0  0  0  0  0  0  0  0  0  0  0  0
    9.3486    7.7021  -13.4244 C   0  0  0  0  0  0  0  0  0  0  0  0
    6.8221    9.8115  -10.3976 Cl  0  0  0  0  0  0  0  0  0  0  0  0
   13.8481    6.6900  -18.0235 C   0  0  0  0  0  0  0  0  0  0  0  0
   14.9109    6.5266  -18.8673 O   0  0  0  0  0  0  0  0  0  0  0  0
   12.8535    7.3389  -18.4385 O   0  0  0  0  0  0  0  0  0  0  0  0
  2  1  1  0
  1  6  2  0
  9  1  1  0
  2  3  2  0
  8  2  1  0
  3  4  1  0
  4  5  2  0
  6  5  1  0
  5 23  1  0
  7  8  2  0
  7 10  1  0
 14  7  1  0
  8 13  1  0
 10  9  2  0
 10 15  1  0
 11 12  1  0
 11 14  2  0
 12 13  2  0
 15 16  1  0
 16 17  2  0
 16 21  1  0
 17 18  1  0
 18 19  2  0
 18 22  1  0
 19 20  1  0
 20 21  2  0
 23 24  1  0
 23 25  2  0
M  END
$$$$
