
     RDKit          3D

 25 28  0  0  0  0  0  0  0  0999 V2000
   12.5952    5.9572  -14.4874 C   0  0  0  0  0  0  0  0  0  0  0  0
   13.5160    5.0167  -14.0399 C   0  0  0  0  0  0  0  0  0  0  0  0
   14.5207    4.5533  -14.8570 C   0  0  0  0  0  0  0  0  0  0  0  0
   14.5968    5.0450  -16.1399 C   0  0  0  0  0  0  0  0  0  0  0  0
   13.7078    5.9805  -16.6357 C   0  0  0  0  0  0  0  0  0  0  0  0
   12.7206    6.4170  -15.7901 C   0  0  0  0  0  0  0  0  0  0  0  0
   12.3396    5.0630  -11.9620 C   0  0  0  0  0  0  0  0  0  0  0  0
   13.3917    4.5517  -12.7424 C   0  0  0  0  0  0  0  0  0  0  0  0
   11.6134    6.4050  -13.6908 N   0  0  0  0  0  0  0  0  0  0  0  0
   11.4476    5.9840  -12.4188 C   0  0  0  0  0  0  0  0  0  0  0  0
   13.1410    3.6632  -10.2157 C   0  0  0  0  0  0  0  0  0  0  0  0
   14.1294    3.2017  -10.9936 N   0  0  0  0  0  0  0  0  0  0  0  0
   14.2854    3.6266  -12.2693 C   0  0  0  0  0  0  0  0  0  0  0  0
   12.2312    4.5970  -10.6783 C   0  0  0  0  0  0  0  0  0  0  0  0
   10.3750    6.4547  -11.6220 N   0  0  0  0  0  0  0  0  0  0  0  0
    9.3926    7.3709  -12.1448 C   0  0  0  0  0  0  0  0  0  0  0  0
    9.2788    7.5223  -13.4993 C   0  0  0  0  0  0  0  0  0  0  0  0
    8.3235    8.3895  -14.0407 C   0  0  0  0  0  0  0  0  0  0  0  0
    7.4897    9.0990  -13.2155 C   0  0  0  0  0  0  0  0  0  0  0  0
    7.5883    8.9623  -11.8638 C   0  0  0  0  0  0  0  0  0  0  0  0
    8.5449    8.0937  -11.3294 C   0  0  0  0  0  0  0  0  0  0  0  0
    8.2123    8.5538  -15.7647 Cl  0  0  0  0  0  0  0  0  0  0  0  0
   13.8068    6.4855  -18.0017 C   0  0  0  0  0  0  0  0  0  0  0  0
   14.8749    6.2804  -18.8296 O   0  0  0  0  0  0  0  0  0  0  0  0
   12.8357    7.1554  -18.4387 O   0  0  0  0  0  0  0  0  0  0  0  0
  2  1  1  0
  1  6  2  0
  9  1  1  0
  2  3  2  0
  8  2  1  0
  3  4  1  0
  4  5  2  0
  6  5  1  0
  5 23  1  0
  7  8  2  0
  7 10  1  0
 14  7  1  0
  8 13  1  0
 10  9  2  0
 10 15  1  0
 11 12  1  0
 11 14  2  0
 12 13  2  0
 15 16  1  0
 16 17  2  0
 16 21  1  0
 17 18  1  0
 18 19  2  0
 18 22  1  0
 19 20  1  0
 20 21  2  0
 23 24  1  0
 23 25  2  0
M  END
$$$$
