
     RDKit          3D

 25 28  0  0  0  0  0  0  0  0999 V2000
   12.4806    6.0953  -14.6488 C   0  0  0  0  0  0  0  0  0  0  0  0
   13.4714    5.2263  -14.2060 C   0  0  0  0  0  0  0  0  0  0  0  0
   14.5181    4.8598  -15.0196 C   0  0  0  0  0  0  0  0  0  0  0  0
   14.5652    5.3765  -16.2940 C   0  0  0  0  0  0  0  0  0  0  0  0
   13.6071    6.2438  -16.7848 C   0  0  0  0  0  0  0  0  0  0  0  0
   12.5798    6.5845  -15.9430 C   0  0  0  0  0  0  0  0  0  0  0  0
   12.2762    5.1431  -12.1400 C   0  0  0  0  0  0  0  0  0  0  0  0
   13.3738    4.7321  -12.9171 C   0  0  0  0  0  0  0  0  0  0  0  0
   11.4582    6.4485  -13.8558 N   0  0  0  0  0  0  0  0  0  0  0  0
   11.3159    5.9952  -12.5921 C   0  0  0  0  0  0  0  0  0  0  0  0
   13.1738    3.7860  -10.4068 C   0  0  0  0  0  0  0  0  0  0  0  0
   14.2037    3.4195  -11.1813 N   0  0  0  0  0  0  0  0  0  0  0  0
   14.3359    3.8759  -12.4487 C   0  0  0  0  0  0  0  0  0  0  0  0
   12.1947    4.6494  -10.8647 C   0  0  0  0  0  0  0  0  0  0  0  0
   10.2011    6.3638  -11.7994 N   0  0  0  0  0  0  0  0  0  0  0  0
    9.2697    7.3754  -12.2319 C   0  0  0  0  0  0  0  0  0  0  0  0
    8.7986    8.2792  -11.3200 C   0  0  0  0  0  0  0  0  0  0  0  0
    7.9075    9.2851  -11.7099 C   0  0  0  0  0  0  0  0  0  0  0  0
    7.4961    9.3743  -13.0147 C   0  0  0  0  0  0  0  0  0  0  0  0
    7.9536    8.4828  -13.9374 C   0  0  0  0  0  0  0  0  0  0  0  0
    8.8441    7.4802  -13.5411 C   0  0  0  0  0  0  0  0  0  0  0  0
    7.3326   10.4115  -10.5216 Cl  0  0  0  0  0  0  0  0  0  0  0  0
   13.6768    6.7769  -18.1420 C   0  0  0  0  0  0  0  0  0  0  0  0
   12.6595    7.4411  -18.7682 O   0  0  0  0  0  0  0  0  0  0  0  0
   14.7529    6.6080  -18.7713 O   0  0  0  0  0  0  0  0  0  0  0  0
  2  1  1  0
  1  6  2  0
  9  1  1  0
  2  3  2  0
  8  2  1  0
  3  4  1  0
  4  5  2  0
  6  5  1  0
  5 23  1  0
  7  8  2  0
  7 10  1  0
 14  7  1  0
  8 13  1  0
 10  9  2  0
 10 15  1  0
 11 12  1  0
 11 14  2  0
 12 13  2  0
 15 16  1  0
 16 17  2  0
 16 21  1  0
 17 18  1  0
 18 19  2  0
 18 22  1  0
 19 20  1  0
 20 21  2  0
 23 24  1  0
 23 25  2  0
M  END
$$$$
