
     RDKit          3D

 25 28  0  0  0  0  0  0  0  0999 V2000
   12.5388    6.1380  -14.4710 C   0  0  0  0  0  0  0  0  0  0  0  0
   13.5197    5.2402  -14.0654 C   0  0  0  0  0  0  0  0  0  0  0  0
   14.5350    4.8588  -14.9112 C   0  0  0  0  0  0  0  0  0  0  0  0
   14.5606    5.3899  -16.1803 C   0  0  0  0  0  0  0  0  0  0  0  0
   13.6110    6.2859  -16.6349 C   0  0  0  0  0  0  0  0  0  0  0  0
   12.6151    6.6406  -15.7617 C   0  0  0  0  0  0  0  0  0  0  0  0
   12.3785    5.1601  -11.9689 C   0  0  0  0  0  0  0  0  0  0  0  0
   13.4446    4.7326  -12.7802 C   0  0  0  0  0  0  0  0  0  0  0  0
   11.5468    6.5057  -13.6466 N   0  0  0  0  0  0  0  0  0  0  0  0
   11.4273    6.0403  -12.3849 C   0  0  0  0  0  0  0  0  0  0  0  0
   13.2889    3.7606  -10.2767 C   0  0  0  0  0  0  0  0  0  0  0  0
   14.2886    3.3791  -11.0829 N   0  0  0  0  0  0  0  0  0  0  0  0
   14.3979    3.8478  -12.3481 C   0  0  0  0  0  0  0  0  0  0  0  0
   12.3192    4.6528  -10.6978 C   0  0  0  0  0  0  0  0  0  0  0  0
   10.3434    6.4257  -11.5582 N   0  0  0  0  0  0  0  0  0  0  0  0
    9.3614    7.3840  -12.0001 C   0  0  0  0  0  0  0  0  0  0  0  0
    9.0906    7.4907  -13.3364 C   0  0  0  0  0  0  0  0  0  0  0  0
    8.1302    8.3977  -13.7977 C   0  0  0  0  0  0  0  0  0  0  0  0
    7.4494    9.1916  -12.9113 C   0  0  0  0  0  0  0  0  0  0  0  0
    7.7057    9.1004  -11.5766 C   0  0  0  0  0  0  0  0  0  0  0  0
    8.6664    8.1917  -11.1223 C   0  0  0  0  0  0  0  0  0  0  0  0
    7.8172    8.5029  -15.5013 Cl  0  0  0  0  0  0  0  0  0  0  0  0
   13.6572    6.8338  -17.9871 C   0  0  0  0  0  0  0  0  0  0  0  0
   12.6611    7.5748  -18.5589 O   0  0  0  0  0  0  0  0  0  0  0  0
   14.6907    6.6023  -18.6660 O   0  0  0  0  0  0  0  0  0  0  0  0
  2  1  1  0
  1  6  2  0
  9  1  1  0
  2  3  2  0
  8  2  1  0
  3  4  1  0
  4  5  2  0
  6  5  1  0
  5 23  1  0
  7  8  2  0
  7 10  1  0
 14  7  1  0
  8 13  1  0
 10  9  2  0
 10 15  1  0
 11 12  1  0
 11 14  2  0
 12 13  2  0
 15 16  1  0
 16 17  2  0
 16 21  1  0
 17 18  1  0
 18 19  2  0
 18 22  1  0
 19 20  1  0
 20 21  2  0
 23 24  1  0
 23 25  2  0
M  END
$$$$
