
     RDKit          3D

 25 28  0  0  0  0  0  0  0  0999 V2000
   12.5781    5.9296  -14.3872 C   0  0  0  0  0  0  0  0  0  0  0  0
   13.5468    5.0378  -13.9411 C   0  0  0  0  0  0  0  0  0  0  0  0
   14.5670    4.6189  -14.7629 C   0  0  0  0  0  0  0  0  0  0  0  0
   14.6099    5.1058  -16.0491 C   0  0  0  0  0  0  0  0  0  0  0  0
   13.6729    5.9938  -16.5438 C   0  0  0  0  0  0  0  0  0  0  0  0
   12.6717    6.3870  -15.6935 C   0  0  0  0  0  0  0  0  0  0  0  0
   12.3843    5.0396  -11.8548 C   0  0  0  0  0  0  0  0  0  0  0  0
   13.4545    4.5753  -12.6401 C   0  0  0  0  0  0  0  0  0  0  0  0
   11.5814    6.3340  -13.5860 N   0  0  0  0  0  0  0  0  0  0  0  0
   11.4452    5.9133  -12.3104 C   0  0  0  0  0  0  0  0  0  0  0  0
   13.2653    3.6912  -10.1065 C   0  0  0  0  0  0  0  0  0  0  0  0
   14.2693    3.2737  -10.8889 N   0  0  0  0  0  0  0  0  0  0  0  0
   14.3954    3.6977  -12.1682 C   0  0  0  0  0  0  0  0  0  0  0  0
   12.3078    4.5768  -10.5677 C   0  0  0  0  0  0  0  0  0  0  0  0
   10.3567    6.3362  -11.5084 N   0  0  0  0  0  0  0  0  0  0  0  0
    9.4081    7.3141  -11.9794 C   0  0  0  0  0  0  0  0  0  0  0  0
    9.3209    7.5636  -13.3213 C   0  0  0  0  0  0  0  0  0  0  0  0
    8.3984    8.4932  -13.8139 C   0  0  0  0  0  0  0  0  0  0  0  0
    7.5704    9.1660  -12.9528 C   0  0  0  0  0  0  0  0  0  0  0  0
    7.6429    8.9316  -11.6129 C   0  0  0  0  0  0  0  0  0  0  0  0
    8.5668    8.0011  -11.1274 C   0  0  0  0  0  0  0  0  0  0  0  0
    8.3204    8.7815  -15.5234 Cl  0  0  0  0  0  0  0  0  0  0  0  0
   13.7375    6.4946  -17.9135 C   0  0  0  0  0  0  0  0  0  0  0  0
   12.7381    7.1916  -18.5330 O   0  0  0  0  0  0  0  0  0  0  0  0
   14.7911    6.2635  -18.5609 O   0  0  0  0  0  0  0  0  0  0  0  0
  2  1  1  0
  1  6  2  0
  9  1  1  0
  2  3  2  0
  8  2  1  0
  3  4  1  0
  4  5  2  0
  6  5  1  0
  5 23  1  0
  7  8  2  0
  7 10  1  0
 14  7  1  0
  8 13  1  0
 10  9  2  0
 10 15  1  0
 11 12  1  0
 11 14  2  0
 12 13  2  0
 15 16  1  0
 16 17  2  0
 16 21  1  0
 17 18  1  0
 18 19  2  0
 18 22  1  0
 19 20  1  0
 20 21  2  0
 23 24  1  0
 23 25  2  0
M  END
$$$$
