
     RDKit          3D

 25 28  0  0  0  0  0  0  0  0999 V2000
   12.6351    5.9724  -14.4730 C   0  0  0  0  0  0  0  0  0  0  0  0
   13.5388    5.0345  -13.9870 C   0  0  0  0  0  0  0  0  0  0  0  0
   14.5690    4.5621  -14.7663 C   0  0  0  0  0  0  0  0  0  0  0  0
   14.6884    5.0421  -16.0503 C   0  0  0  0  0  0  0  0  0  0  0  0
   13.8181    5.9746  -16.5835 C   0  0  0  0  0  0  0  0  0  0  0  0
   12.8044    6.4203  -15.7750 C   0  0  0  0  0  0  0  0  0  0  0  0
   12.2945    5.1014  -11.9496 C   0  0  0  0  0  0  0  0  0  0  0  0
   13.3708    4.5814  -12.6902 C   0  0  0  0  0  0  0  0  0  0  0  0
   11.6284    6.4290  -13.7134 N   0  0  0  0  0  0  0  0  0  0  0  0
   11.4198    6.0198  -12.4439 C   0  0  0  0  0  0  0  0  0  0  0  0
   13.0350    3.7160  -10.1654 C   0  0  0  0  0  0  0  0  0  0  0  0
   14.0476    3.2460  -10.9060 N   0  0  0  0  0  0  0  0  0  0  0  0
   14.2465    3.6590  -12.1796 C   0  0  0  0  0  0  0  0  0  0  0  0
   12.1428    4.6471  -10.6661 C   0  0  0  0  0  0  0  0  0  0  0  0
   10.3225    6.4994  -11.6872 N   0  0  0  0  0  0  0  0  0  0  0  0
    9.4484    7.5273  -12.1944 C   0  0  0  0  0  0  0  0  0  0  0  0
    9.0035    7.4449  -13.4851 C   0  0  0  0  0  0  0  0  0  0  0  0
    8.1397    8.4158  -14.0035 C   0  0  0  0  0  0  0  0  0  0  0  0
    7.7299    9.4636  -13.2200 C   0  0  0  0  0  0  0  0  0  0  0  0
    8.1629    9.5634  -11.9323 C   0  0  0  0  0  0  0  0  0  0  0  0
    9.0258    8.5895  -11.4204 C   0  0  0  0  0  0  0  0  0  0  0  0
    7.5991    8.2749  -15.6465 Cl  0  0  0  0  0  0  0  0  0  0  0  0
   13.9632    6.4671  -17.9500 C   0  0  0  0  0  0  0  0  0  0  0  0
   15.0776    6.2958  -18.7227 O   0  0  0  0  0  0  0  0  0  0  0  0
   12.9886    7.0919  -18.4423 O   0  0  0  0  0  0  0  0  0  0  0  0
  2  1  1  0
  1  6  2  0
  9  1  1  0
  2  3  2  0
  8  2  1  0
  3  4  1  0
  4  5  2  0
  6  5  1  0
  5 23  1  0
  7  8  2  0
  7 10  1  0
 14  7  1  0
  8 13  1  0
 10  9  2  0
 10 15  1  0
 11 12  1  0
 11 14  2  0
 12 13  2  0
 15 16  1  0
 16 17  2  0
 16 21  1  0
 17 18  1  0
 18 19  2  0
 18 22  1  0
 19 20  1  0
 20 21  2  0
 23 24  1  0
 23 25  2  0
M  END
$$$$
