
     RDKit          3D

 25 28  0  0  0  0  0  0  0  0999 V2000
   12.8245    5.9748  -14.5289 C   0  0  0  0  0  0  0  0  0  0  0  0
   13.7539    5.0173  -14.1387 C   0  0  0  0  0  0  0  0  0  0  0  0
   14.7222    4.5648  -15.0044 C   0  0  0  0  0  0  0  0  0  0  0  0
   14.7528    5.0848  -16.2779 C   0  0  0  0  0  0  0  0  0  0  0  0
   13.8533    6.0382  -16.7178 C   0  0  0  0  0  0  0  0  0  0  0  0
   12.9035    6.4630  -15.8250 C   0  0  0  0  0  0  0  0  0  0  0  0
   12.6592    5.0256  -12.0161 C   0  0  0  0  0  0  0  0  0  0  0  0
   13.6759    4.5240  -12.8481 C   0  0  0  0  0  0  0  0  0  0  0  0
   11.8782    6.4119  -13.6850 N   0  0  0  0  0  0  0  0  0  0  0  0
   11.7581    5.9636  -12.4172 C   0  0  0  0  0  0  0  0  0  0  0  0
   13.5155    3.5805  -10.3340 C   0  0  0  0  0  0  0  0  0  0  0  0
   14.4691    3.1292  -11.1598 N   0  0  0  0  0  0  0  0  0  0  0  0
   14.5792    3.5816  -12.4308 C   0  0  0  0  0  0  0  0  0  0  0  0
   12.5965    4.5315  -10.7399 C   0  0  0  0  0  0  0  0  0  0  0  0
   10.7212    6.4244  -11.5690 N   0  0  0  0  0  0  0  0  0  0  0  0
    9.6993    7.3220  -12.0463 C   0  0  0  0  0  0  0  0  0  0  0  0
    9.5603    7.5157  -13.3931 C   0  0  0  0  0  0  0  0  0  0  0  0
    8.5669    8.3661  -13.8910 C   0  0  0  0  0  0  0  0  0  0  0  0
    7.7207    9.0164  -13.0304 C   0  0  0  0  0  0  0  0  0  0  0  0
    7.8441    8.8369  -11.6857 C   0  0  0  0  0  0  0  0  0  0  0  0
    8.8387    7.9855  -11.1948 C   0  0  0  0  0  0  0  0  0  0  0  0
    8.4246    8.5853  -15.6065 Cl  0  0  0  0  0  0  0  0  0  0  0  0
   13.9038    6.5731  -18.0751 C   0  0  0  0  0  0  0  0  0  0  0  0
   14.9354    6.3751  -18.9496 O   0  0  0  0  0  0  0  0  0  0  0  0
   12.9242    7.2637  -18.4575 O   0  0  0  0  0  0  0  0  0  0  0  0
  2  1  1  0
  1  6  2  0
  9  1  1  0
  2  3  2  0
  8  2  1  0
  3  4  1  0
  4  5  2  0
  6  5  1  0
  5 23  1  0
  7  8  2  0
  7 10  1  0
 14  7  1  0
  8 13  1  0
 10  9  2  0
 10 15  1  0
 11 12  1  0
 11 14  2  0
 12 13  2  0
 15 16  1  0
 16 17  2  0
 16 21  1  0
 17 18  1  0
 18 19  2  0
 18 22  1  0
 19 20  1  0
 20 21  2  0
 23 24  1  0
 23 25  2  0
M  END
$$$$
