
     RDKit          3D

 25 28  0  0  0  0  0  0  0  0999 V2000
   12.6538    6.1888  -14.5555 C   0  0  0  0  0  0  0  0  0  0  0  0
   13.5849    5.2605  -14.1036 C   0  0  0  0  0  0  0  0  0  0  0  0
   14.5905    4.7992  -14.9207 C   0  0  0  0  0  0  0  0  0  0  0  0
   14.6571    5.2805  -16.2081 C   0  0  0  0  0  0  0  0  0  0  0  0
   13.7577    6.2036  -16.7084 C   0  0  0  0  0  0  0  0  0  0  0  0
   12.7700    6.6384  -15.8626 C   0  0  0  0  0  0  0  0  0  0  0  0
   12.4162    5.3142  -12.0215 C   0  0  0  0  0  0  0  0  0  0  0  0
   13.4699    4.8057  -12.8017 C   0  0  0  0  0  0  0  0  0  0  0  0
   11.6712    6.6345  -13.7589 N   0  0  0  0  0  0  0  0  0  0  0  0
   11.5141    6.2231  -12.4827 C   0  0  0  0  0  0  0  0  0  0  0  0
   13.2371    3.9368  -10.2665 C   0  0  0  0  0  0  0  0  0  0  0  0
   14.2266    3.4776  -11.0442 N   0  0  0  0  0  0  0  0  0  0  0  0
   14.3737    3.8928  -12.3242 C   0  0  0  0  0  0  0  0  0  0  0  0
   12.3171    4.8583  -10.7334 C   0  0  0  0  0  0  0  0  0  0  0  0
   10.4405    6.6910  -11.6857 N   0  0  0  0  0  0  0  0  0  0  0  0
    9.5146    7.6820  -12.1742 C   0  0  0  0  0  0  0  0  0  0  0  0
    8.2375    7.6973  -11.6851 C   0  0  0  0  0  0  0  0  0  0  0  0
    7.3187    8.6570  -12.1242 C   0  0  0  0  0  0  0  0  0  0  0  0
    7.6911    9.5942  -13.0529 C   0  0  0  0  0  0  0  0  0  0  0  0
    8.9584    9.5946  -13.5524 C   0  0  0  0  0  0  0  0  0  0  0  0
    9.8716    8.6330  -13.1090 C   0  0  0  0  0  0  0  0  0  0  0  0
    5.7077    8.6412  -11.4794 Cl  0  0  0  0  0  0  0  0  0  0  0  0
   13.8468    6.6976  -18.0791 C   0  0  0  0  0  0  0  0  0  0  0  0
   14.9281    6.5257  -18.8974 O   0  0  0  0  0  0  0  0  0  0  0  0
   12.8535    7.3243  -18.5299 O   0  0  0  0  0  0  0  0  0  0  0  0
  2  1  1  0
  1  6  2  0
  9  1  1  0
  2  3  2  0
  8  2  1  0
  3  4  1  0
  4  5  2  0
  6  5  1  0
  5 23  1  0
  7  8  2  0
  7 10  1  0
 14  7  1  0
  8 13  1  0
 10  9  2  0
 10 15  1  0
 11 12  1  0
 11 14  2  0
 12 13  2  0
 15 16  1  0
 16 17  2  0
 16 21  1  0
 17 18  1  0
 18 19  2  0
 18 22  1  0
 19 20  1  0
 20 21  2  0
 23 24  1  0
 23 25  2  0
M  END
$$$$
