
     RDKit          3D

 25 28  0  0  0  0  0  0  0  0999 V2000
   12.3888    6.1165  -14.6422 C   0  0  0  0  0  0  0  0  0  0  0  0
   13.3242    5.1693  -14.2413 C   0  0  0  0  0  0  0  0  0  0  0  0
   14.3179    4.7406  -15.0901 C   0  0  0  0  0  0  0  0  0  0  0  0
   14.3680    5.2740  -16.3575 C   0  0  0  0  0  0  0  0  0  0  0  0
   13.4637    6.2179  -16.8074 C   0  0  0  0  0  0  0  0  0  0  0  0
   12.4882    6.6191  -15.9313 C   0  0  0  0  0  0  0  0  0  0  0  0
   12.1838    5.1393  -12.1431 C   0  0  0  0  0  0  0  0  0  0  0  0
   13.2259    4.6618  -12.9576 C   0  0  0  0  0  0  0  0  0  0  0  0
   11.4178    6.5306  -13.8148 N   0  0  0  0  0  0  0  0  0  0  0  0
   11.2772    6.0675  -12.5545 C   0  0  0  0  0  0  0  0  0  0  0  0
   13.0257    3.6903  -10.4571 C   0  0  0  0  0  0  0  0  0  0  0  0
   14.0037    3.2620  -11.2663 N   0  0  0  0  0  0  0  0  0  0  0  0
   14.1344    3.7290  -12.5301 C   0  0  0  0  0  0  0  0  0  0  0  0
   12.1011    4.6313  -10.8735 C   0  0  0  0  0  0  0  0  0  0  0  0
   10.2152    6.5038  -11.7246 N   0  0  0  0  0  0  0  0  0  0  0  0
    9.1786    7.3737  -12.2211 C   0  0  0  0  0  0  0  0  0  0  0  0
    8.3861    8.0409  -11.3282 C   0  0  0  0  0  0  0  0  0  0  0  0
    7.3826    8.9071  -11.7760 C   0  0  0  0  0  0  0  0  0  0  0  0
    7.1828    9.0954  -13.1192 C   0  0  0  0  0  0  0  0  0  0  0  0
    7.9615    8.4391  -14.0240 C   0  0  0  0  0  0  0  0  0  0  0  0
    8.9628    7.5753  -13.5697 C   0  0  0  0  0  0  0  0  0  0  0  0
    6.3981    9.7338  -10.6104 Cl  0  0  0  0  0  0  0  0  0  0  0  0
   13.5352    6.7675  -18.1579 C   0  0  0  0  0  0  0  0  0  0  0  0
   12.5734    7.5538  -18.7278 O   0  0  0  0  0  0  0  0  0  0  0  0
   14.5578    6.4924  -18.8370 O   0  0  0  0  0  0  0  0  0  0  0  0
  2  1  1  0
  1  6  2  0
  9  1  1  0
  2  3  2  0
  8  2  1  0
  3  4  1  0
  4  5  2  0
  6  5  1  0
  5 23  1  0
  7  8  2  0
  7 10  1  0
 14  7  1  0
  8 13  1  0
 10  9  2  0
 10 15  1  0
 11 12  1  0
 11 14  2  0
 12 13  2  0
 15 16  1  0
 16 17  2  0
 16 21  1  0
 17 18  1  0
 18 19  2  0
 18 22  1  0
 19 20  1  0
 20 21  2  0
 23 24  1  0
 23 25  2  0
M  END
$$$$
