
     RDKit          3D

 25 28  0  0  0  0  0  0  0  0999 V2000
   12.5331    6.1650  -14.5479 C   0  0  0  0  0  0  0  0  0  0  0  0
   13.5236    5.2787  -14.1402 C   0  0  0  0  0  0  0  0  0  0  0  0
   14.5489    4.9145  -14.9814 C   0  0  0  0  0  0  0  0  0  0  0  0
   14.5749    5.4511  -16.2481 C   0  0  0  0  0  0  0  0  0  0  0  0
   13.6160    6.3362  -16.7047 C   0  0  0  0  0  0  0  0  0  0  0  0
   12.6104    6.6740  -15.8361 C   0  0  0  0  0  0  0  0  0  0  0  0
   12.3712    5.1746  -12.0508 C   0  0  0  0  0  0  0  0  0  0  0  0
   13.4477    4.7648  -12.8575 C   0  0  0  0  0  0  0  0  0  0  0  0
   11.5315    6.5160  -13.7280 N   0  0  0  0  0  0  0  0  0  0  0  0
   11.4108    6.0438  -12.4689 C   0  0  0  0  0  0  0  0  0  0  0  0
   13.2903    3.7805  -10.3589 C   0  0  0  0  0  0  0  0  0  0  0  0
   14.2997    3.4158  -11.1607 N   0  0  0  0  0  0  0  0  0  0  0  0
   14.4103    3.8911  -12.4232 C   0  0  0  0  0  0  0  0  0  0  0  0
   12.3112    4.6613  -10.7821 C   0  0  0  0  0  0  0  0  0  0  0  0
   10.3169    6.4112  -11.6471 N   0  0  0  0  0  0  0  0  0  0  0  0
    9.3695    7.4170  -12.0577 C   0  0  0  0  0  0  0  0  0  0  0  0
    8.9012    7.4045  -13.3427 C   0  0  0  0  0  0  0  0  0  0  0  0
    7.9672    8.3551  -13.7691 C   0  0  0  0  0  0  0  0  0  0  0  0
    7.5114    9.3123  -12.8998 C   0  0  0  0  0  0  0  0  0  0  0  0
    7.9667    9.3416  -11.6163 C   0  0  0  0  0  0  0  0  0  0  0  0
    8.8997    8.3884  -11.1966 C   0  0  0  0  0  0  0  0  0  0  0  0
    7.3990    8.3052  -15.4080 Cl  0  0  0  0  0  0  0  0  0  0  0  0
   13.6630    6.8903  -18.0544 C   0  0  0  0  0  0  0  0  0  0  0  0
   12.6583    7.6159  -18.6310 O   0  0  0  0  0  0  0  0  0  0  0  0
   14.7056    6.6799  -18.7262 O   0  0  0  0  0  0  0  0  0  0  0  0
  2  1  1  0
  1  6  2  0
  9  1  1  0
  2  3  2  0
  8  2  1  0
  3  4  1  0
  4  5  2  0
  6  5  1  0
  5 23  1  0
  7  8  2  0
  7 10  1  0
 14  7  1  0
  8 13  1  0
 10  9  2  0
 10 15  1  0
 11 12  1  0
 11 14  2  0
 12 13  2  0
 15 16  1  0
 16 17  2  0
 16 21  1  0
 17 18  1  0
 18 19  2  0
 18 22  1  0
 19 20  1  0
 20 21  2  0
 23 24  1  0
 23 25  2  0
M  END
$$$$
