
     RDKit          3D

 25 28  0  0  0  0  0  0  0  0999 V2000
   12.7267    6.0156  -14.5929 C   0  0  0  0  0  0  0  0  0  0  0  0
   13.6245    5.0499  -14.1523 C   0  0  0  0  0  0  0  0  0  0  0  0
   14.6127    4.5624  -14.9753 C   0  0  0  0  0  0  0  0  0  0  0  0
   14.6957    5.0554  -16.2573 C   0  0  0  0  0  0  0  0  0  0  0  0
   13.8295    6.0154  -16.7464 C   0  0  0  0  0  0  0  0  0  0  0  0
   12.8582    6.4755  -15.8950 C   0  0  0  0  0  0  0  0  0  0  0  0
   12.4594    5.1216  -12.0687 C   0  0  0  0  0  0  0  0  0  0  0  0
   13.4939    4.5848  -12.8555 C   0  0  0  0  0  0  0  0  0  0  0  0
   11.7609    6.4870  -13.7905 N   0  0  0  0  0  0  0  0  0  0  0  0
   11.5899    6.0671  -12.5189 C   0  0  0  0  0  0  0  0  0  0  0  0
   13.2316    3.6963  -10.3299 C   0  0  0  0  0  0  0  0  0  0  0  0
   14.2038    3.2111  -11.1136 N   0  0  0  0  0  0  0  0  0  0  0  0
   14.3650    3.6351  -12.3890 C   0  0  0  0  0  0  0  0  0  0  0  0
   12.3447    4.6551  -10.7857 C   0  0  0  0  0  0  0  0  0  0  0  0
   10.5339    6.5639  -11.7158 N   0  0  0  0  0  0  0  0  0  0  0  0
    9.5753    7.5093  -12.2307 C   0  0  0  0  0  0  0  0  0  0  0  0
    9.3593    7.5695  -13.5799 C   0  0  0  0  0  0  0  0  0  0  0  0
    8.4228    8.4629  -14.1115 C   0  0  0  0  0  0  0  0  0  0  0  0
    7.7106    9.2902  -13.2820 C   0  0  0  0  0  0  0  0  0  0  0  0
    7.9123    9.2454  -11.9356 C   0  0  0  0  0  0  0  0  0  0  0  0
    8.8494    8.3501  -11.4109 C   0  0  0  0  0  0  0  0  0  0  0  0
    8.1794    8.5087  -15.8291 Cl  0  0  0  0  0  0  0  0  0  0  0  0
   13.9354    6.5213  -18.1116 C   0  0  0  0  0  0  0  0  0  0  0  0
   15.0076    6.3165  -18.9343 O   0  0  0  0  0  0  0  0  0  0  0  0
   12.9668    7.1918  -18.5529 O   0  0  0  0  0  0  0  0  0  0  0  0
  2  1  1  0
  1  6  2  0
  9  1  1  0
  2  3  2  0
  8  2  1  0
  3  4  1  0
  4  5  2  0
  6  5  1  0
  5 23  1  0
  7  8  2  0
  7 10  1  0
 14  7  1  0
  8 13  1  0
 10  9  2  0
 10 15  1  0
 11 12  1  0
 11 14  2  0
 12 13  2  0
 15 16  1  0
 16 17  2  0
 16 21  1  0
 17 18  1  0
 18 19  2  0
 18 22  1  0
 19 20  1  0
 20 21  2  0
 23 24  1  0
 23 25  2  0
M  END
$$$$
