
     RDKit          3D

 25 28  0  0  0  0  0  0  0  0999 V2000
   12.5284    6.0099  -14.6496 C   0  0  0  0  0  0  0  0  0  0  0  0
   13.4815    5.0794  -14.2515 C   0  0  0  0  0  0  0  0  0  0  0  0
   14.4579    4.6403  -15.1150 C   0  0  0  0  0  0  0  0  0  0  0  0
   14.4724    5.1463  -16.3944 C   0  0  0  0  0  0  0  0  0  0  0  0
   13.5491    6.0728  -16.8423 C   0  0  0  0  0  0  0  0  0  0  0  0
   12.5919    6.4850  -15.9513 C   0  0  0  0  0  0  0  0  0  0  0  0
   12.3930    5.0858  -12.1257 C   0  0  0  0  0  0  0  0  0  0  0  0
   13.4190    4.5991  -12.9551 C   0  0  0  0  0  0  0  0  0  0  0  0
   11.5743    6.4339  -13.8077 N   0  0  0  0  0  0  0  0  0  0  0  0
   11.4685    5.9973  -12.5346 C   0  0  0  0  0  0  0  0  0  0  0  0
   13.2884    3.6808  -10.4300 C   0  0  0  0  0  0  0  0  0  0  0  0
   14.2500    3.2430  -11.2536 N   0  0  0  0  0  0  0  0  0  0  0  0
   14.3458    3.6833  -12.5300 C   0  0  0  0  0  0  0  0  0  0  0  0
   12.3458    4.6049  -10.8438 C   0  0  0  0  0  0  0  0  0  0  0  0
   10.4234    6.4429  -11.6885 N   0  0  0  0  0  0  0  0  0  0  0  0
    9.4231    7.3722  -12.1507 C   0  0  0  0  0  0  0  0  0  0  0  0
    9.1721    7.4666  -13.4919 C   0  0  0  0  0  0  0  0  0  0  0  0
    8.1951    8.3451  -13.9730 C   0  0  0  0  0  0  0  0  0  0  0  0
    7.4779    9.1233  -13.1014 C   0  0  0  0  0  0  0  0  0  0  0  0
    7.7141    9.0441  -11.7622 C   0  0  0  0  0  0  0  0  0  0  0  0
    8.6915    8.1638  -11.2881 C   0  0  0  0  0  0  0  0  0  0  0  0
    7.9082    8.4354  -15.6821 Cl  0  0  0  0  0  0  0  0  0  0  0  0
   13.5829    6.5933  -18.2057 C   0  0  0  0  0  0  0  0  0  0  0  0
   14.6157    6.4087  -19.0817 O   0  0  0  0  0  0  0  0  0  0  0  0
   12.5867    7.2572  -18.5923 O   0  0  0  0  0  0  0  0  0  0  0  0
  2  1  1  0
  1  6  2  0
  9  1  1  0
  2  3  2  0
  8  2  1  0
  3  4  1  0
  4  5  2  0
  6  5  1  0
  5 23  1  0
  7  8  2  0
  7 10  1  0
 14  7  1  0
  8 13  1  0
 10  9  2  0
 10 15  1  0
 11 12  1  0
 11 14  2  0
 12 13  2  0
 15 16  1  0
 16 17  2  0
 16 21  1  0
 17 18  1  0
 18 19  2  0
 18 22  1  0
 19 20  1  0
 20 21  2  0
 23 24  1  0
 23 25  2  0
M  END
$$$$
