
     RDKit          3D

 25 28  0  0  0  0  0  0  0  0999 V2000
   12.7133    6.0075  -14.3881 C   0  0  0  0  0  0  0  0  0  0  0  0
   13.6746    5.0875  -13.9854 C   0  0  0  0  0  0  0  0  0  0  0  0
   14.6518    4.6492  -14.8483 C   0  0  0  0  0  0  0  0  0  0  0  0
   14.6588    5.1452  -16.1317 C   0  0  0  0  0  0  0  0  0  0  0  0
   13.7272    6.0610  -16.5842 C   0  0  0  0  0  0  0  0  0  0  0  0
   12.7694    6.4728  -15.6937 C   0  0  0  0  0  0  0  0  0  0  0  0
   12.5922    5.1024  -11.8565 C   0  0  0  0  0  0  0  0  0  0  0  0
   13.6196    4.6171  -12.6851 C   0  0  0  0  0  0  0  0  0  0  0  0
   11.7584    6.4309  -13.5468 N   0  0  0  0  0  0  0  0  0  0  0  0
   11.6596    6.0036  -12.2699 C   0  0  0  0  0  0  0  0  0  0  0  0
   13.5033    3.7178  -10.1525 C   0  0  0  0  0  0  0  0  0  0  0  0
   14.4659    3.2809  -10.9754 N   0  0  0  0  0  0  0  0  0  0  0  0
   14.5546    3.7118  -12.2555 C   0  0  0  0  0  0  0  0  0  0  0  0
   12.5524    4.6313  -10.5708 C   0  0  0  0  0  0  0  0  0  0  0  0
   10.6135    6.4478  -11.4243 N   0  0  0  0  0  0  0  0  0  0  0  0
    9.5913    7.3471  -11.8978 C   0  0  0  0  0  0  0  0  0  0  0  0
    8.5289    7.6333  -11.0854 C   0  0  0  0  0  0  0  0  0  0  0  0
    7.5285    8.5162  -11.5066 C   0  0  0  0  0  0  0  0  0  0  0  0
    7.6035    9.1045  -12.7427 C   0  0  0  0  0  0  0  0  0  0  0  0
    8.6535    8.8314  -13.5664 C   0  0  0  0  0  0  0  0  0  0  0  0
    9.6500    7.9484  -13.1391 C   0  0  0  0  0  0  0  0  0  0  0  0
    6.1966    8.8518  -10.4460 Cl  0  0  0  0  0  0  0  0  0  0  0  0
   13.7530    6.5709  -17.9517 C   0  0  0  0  0  0  0  0  0  0  0  0
   12.7512    7.3019  -18.5266 O   0  0  0  0  0  0  0  0  0  0  0  0
   14.7732    6.3145  -18.6416 O   0  0  0  0  0  0  0  0  0  0  0  0
  2  1  1  0
  1  6  2  0
  9  1  1  0
  2  3  2  0
  8  2  1  0
  3  4  1  0
  4  5  2  0
  6  5  1  0
  5 23  1  0
  7  8  2  0
  7 10  1  0
 14  7  1  0
  8 13  1  0
 10  9  2  0
 10 15  1  0
 11 12  1  0
 11 14  2  0
 12 13  2  0
 15 16  1  0
 16 17  2  0
 16 21  1  0
 17 18  1  0
 18 19  2  0
 18 22  1  0
 19 20  1  0
 20 21  2  0
 23 24  1  0
 23 25  2  0
M  END
$$$$
