
     RDKit          3D

 34 37  0  0  0  0  0  0  0  0999 V2000
  -13.5195    8.9895    0.1039 C   0  0  0  0  0  0  0  0  0  0  0  0
  -13.7799   10.0622    0.9488 C   0  0  0  0  0  0  0  0  0  0  0  0
  -27.0159    9.5287   -2.1448 C   0  0  0  0  0  0  0  0  0  0  0  0
  -25.5611    9.5674   -1.7995 C   0  0  0  0  0  0  0  0  0  0  0  0
  -24.6453   10.3414   -2.4693 C   0  0  0  0  0  0  0  0  0  0  0  0
  -23.3054   10.3395   -2.1042 C   0  0  0  0  0  0  0  0  0  0  0  0
  -25.1099    8.7900   -0.7556 C   0  0  0  0  0  0  0  0  0  0  0  0
  -23.7823    8.7829   -0.3880 C   0  0  0  0  0  0  0  0  0  0  0  0
  -22.8662    9.5668   -1.0692 C   0  0  0  0  0  0  0  0  0  0  0  0
  -20.1875    8.7001   -1.8068 C   0  0  1  0  0  0  0  0  0  0  0  0
  -19.9778    6.4136   -1.3678 C   0  0  2  0  0  0  0  0  0  0  0  0
  -20.4201    6.4199    0.0759 C   0  0  0  0  0  0  0  0  0  0  0  0
  -18.4712    6.3754   -1.5150 C   0  0  1  0  0  0  0  0  0  0  0  0
  -17.9192    7.6846   -1.9302 C   0  0  1  0  0  0  0  0  0  0  0  0
  -15.9446    8.4795   -0.5805 C   0  0  0  0  0  0  0  0  0  0  0  0
  -14.5803    8.4961   -0.7573 C   0  0  0  0  0  0  0  0  0  0  0  0
  -12.7492   10.5288    1.7708 C   0  0  0  0  0  0  0  0  0  0  0  0
  -11.4909    9.9555    1.7639 C   0  0  0  0  0  0  0  0  0  0  0  0
  -11.2258    8.8894    0.9270 C   0  0  0  0  0  0  0  0  0  0  0  0
  -12.2542    8.4456    0.1262 C   0  0  0  0  0  0  0  0  0  0  0  0
  -18.7325    8.8773   -1.4676 C   0  0  1  0  0  0  0  0  0  0  0  0
  -14.9689   10.6823    1.0256 F   0  0  0  0  0  0  0  0  0  0  0  0
  -12.9562   11.5680    2.6076 F   0  0  0  0  0  0  0  0  0  0  0  0
  -10.4823   10.4083    2.5636 F   0  0  0  0  0  0  0  0  0  0  0  0
   -9.9891    8.3061    0.9029 F   0  0  0  0  0  0  0  0  0  0  0  0
  -12.0044    7.4018   -0.6975 F   0  0  0  0  0  0  0  0  0  0  0  0
  -16.5499    7.9224   -1.6466 N   0  0  0  0  0  0  0  0  0  0  0  0
  -14.4054    7.9298   -1.9635 N   0  0  0  0  0  0  0  0  0  0  0  0
  -15.5665    7.6011   -2.4680 N   0  0  0  0  0  0  0  0  0  0  0  0
  -20.5692    7.4212   -2.0719 O   0  0  0  0  0  0  0  0  0  0  0  0
  -21.3875    5.4298    0.3076 O   0  0  0  0  0  0  0  0  0  0  0  0
  -17.9670    5.8477   -0.3493 O   0  0  0  0  0  0  0  0  0  0  0  0
  -18.2504    9.9813   -2.1773 O   0  0  0  0  0  0  0  0  0  0  0  0
  -21.1751    9.4908   -0.5086 S   0  0  0  0  0  0  0  0  0  0  0  0
  1  2  2  0
 16  1  1  0
  1 20  1  0
  2 17  1  0
  2 22  1  0
  4  3  1  0
  5  4  2  0
  7  4  1  0
  6  5  1  0
  9  6  2  0
  8  7  2  0
  9  8  1  0
 34  9  1  0
 21 10  1  0
 10 30  1  0
 10 34  1  1
 11 12  1  1
 13 11  1  0
 11 30  1  0
 12 31  1  0
 14 13  1  0
 13 32  1  1
 14 21  1  0
 14 27  1  1
 15 16  2  0
 15 27  1  0
 16 28  1  0
 17 18  2  0
 17 23  1  0
 18 19  1  0
 18 24  1  0
 19 20  2  0
 19 25  1  0
 20 26  1  0
 21 33  1  6
 27 29  1  0
 28 29  2  0
M  END
$$$$
