
     RDKit          3D

 34 37  0  0  0  0  0  0  0  0999 V2000
  -13.5740    9.6476   -0.7879 C   0  0  0  0  0  0  0  0  0  0  0  0
  -13.1040   10.9400   -0.9907 C   0  0  0  0  0  0  0  0  0  0  0  0
  -27.2199    8.6895   -3.5372 C   0  0  0  0  0  0  0  0  0  0  0  0
  -25.9954    8.8293   -2.6896 C   0  0  0  0  0  0  0  0  0  0  0  0
  -26.0018    9.3993   -1.4400 C   0  0  0  0  0  0  0  0  0  0  0  0
  -24.8338    9.5017   -0.6957 C   0  0  0  0  0  0  0  0  0  0  0  0
  -24.7960    8.3630   -3.1812 C   0  0  0  0  0  0  0  0  0  0  0  0
  -23.6335    8.4613   -2.4485 C   0  0  0  0  0  0  0  0  0  0  0  0
  -23.6498    9.0375   -1.1894 C   0  0  0  0  0  0  0  0  0  0  0  0
  -20.7931    8.5475   -1.4536 C   0  0  1  0  0  0  0  0  0  0  0  0
  -20.0595    6.4167   -0.8319 C   0  0  2  0  0  0  0  0  0  0  0  0
  -20.6532    6.3701    0.5557 C   0  0  0  0  0  0  0  0  0  0  0  0
  -18.5865    6.7674   -0.8234 C   0  0  1  0  0  0  0  0  0  0  0  0
  -18.3423    8.1560   -1.2743 C   0  0  1  0  0  0  0  0  0  0  0  0
  -15.8739    8.6570   -1.3698 C   0  0  0  0  0  0  0  0  0  0  0  0
  -15.0029    9.4318   -0.6391 C   0  0  0  0  0  0  0  0  0  0  0  0
  -11.7264   11.1334   -1.1347 C   0  0  0  0  0  0  0  0  0  0  0  0
  -10.8300   10.0819   -1.0808 C   0  0  0  0  0  0  0  0  0  0  0  0
  -11.2905    8.7955   -0.8795 C   0  0  0  0  0  0  0  0  0  0  0  0
  -12.6500    8.6272   -0.7401 C   0  0  0  0  0  0  0  0  0  0  0  0
  -19.4809    9.1136   -0.9833 C   0  0  1  0  0  0  0  0  0  0  0  0
  -13.8966   12.0224   -1.0566 F   0  0  0  0  0  0  0  0  0  0  0  0
  -11.2244   12.3709   -1.3331 F   0  0  0  0  0  0  0  0  0  0  0  0
   -9.4854   10.2661   -1.2218 F   0  0  0  0  0  0  0  0  0  0  0  0
  -10.4231    7.7399   -0.8224 F   0  0  0  0  0  0  0  0  0  0  0  0
  -13.1112    7.3707   -0.5427 F   0  0  0  0  0  0  0  0  0  0  0  0
  -17.1214    8.7556   -0.8721 N   0  0  0  0  0  0  0  0  0  0  0  0
  -15.7814    9.9884    0.3044 N   0  0  0  0  0  0  0  0  0  0  0  0
  -17.0154    9.5821    0.1528 N   0  0  0  0  0  0  0  0  0  0  0  0
  -20.8025    7.2030   -1.6628 O   0  0  0  0  0  0  0  0  0  0  0  0
  -21.5270    5.2801    0.6902 O   0  0  0  0  0  0  0  0  0  0  0  0
  -18.1031    6.4413    0.4222 O   0  0  0  0  0  0  0  0  0  0  0  0
  -19.2173   10.2731   -1.7186 O   0  0  0  0  0  0  0  0  0  0  0  0
  -22.0934    9.1083   -0.3219 S   0  0  0  0  0  0  0  0  0  0  0  0
  1  2  2  0
 16  1  1  0
  1 20  1  0
  2 17  1  0
  2 22  1  0
  4  3  1  0
  5  4  2  0
  7  4  1  0
  6  5  1  0
  9  6  2  0
  8  7  2  0
  9  8  1  0
 34  9  1  0
 21 10  1  0
 10 30  1  0
 10 34  1  1
 11 12  1  1
 13 11  1  0
 11 30  1  0
 12 31  1  0
 14 13  1  0
 13 32  1  1
 14 21  1  0
 14 27  1  1
 15 16  2  0
 15 27  1  0
 16 28  1  0
 17 18  2  0
 17 23  1  0
 18 19  1  0
 18 24  1  0
 19 20  2  0
 19 25  1  0
 20 26  1  0
 21 33  1  6
 27 29  1  0
 28 29  2  0
M  END
$$$$
