
     RDKit          3D

 34 37  0  0  0  0  0  0  0  0999 V2000
  -13.9236    9.1868    0.4418 C   0  0  0  0  0  0  0  0  0  0  0  0
  -13.0009    9.7879   -0.4065 C   0  0  0  0  0  0  0  0  0  0  0  0
  -27.5389   11.2485    1.0961 C   0  0  0  0  0  0  0  0  0  0  0  0
  -26.1944   10.5953    1.0432 C   0  0  0  0  0  0  0  0  0  0  0  0
  -25.2283   10.7746    2.0030 C   0  0  0  0  0  0  0  0  0  0  0  0
  -23.9966   10.1409    1.9037 C   0  0  0  0  0  0  0  0  0  0  0  0
  -25.9039    9.7685   -0.0196 C   0  0  0  0  0  0  0  0  0  0  0  0
  -24.6842    9.1368   -0.1247 C   0  0  0  0  0  0  0  0  0  0  0  0
  -23.7164    9.3236    0.8480 C   0  0  0  0  0  0  0  0  0  0  0  0
  -21.0213    9.5672   -0.2233 C   0  0  1  0  0  0  0  0  0  0  0  0
  -20.7286    8.8807   -2.4388 C   0  0  2  0  0  0  0  0  0  0  0  0
  -21.3123    7.4929   -2.3236 C   0  0  0  0  0  0  0  0  0  0  0  0
  -19.2151    8.8815   -2.3920 C   0  0  1  0  0  0  0  0  0  0  0  0
  -18.6986    9.3739   -1.0951 C   0  0  1  0  0  0  0  0  0  0  0  0
  -16.3469    9.6978   -0.2481 C   0  0  0  0  0  0  0  0  0  0  0  0
  -15.2526    8.8851   -0.0614 C   0  0  0  0  0  0  0  0  0  0  0  0
  -11.7244   10.0706    0.0900 C   0  0  0  0  0  0  0  0  0  0  0  0
  -11.3615    9.7702    1.3900 C   0  0  0  0  0  0  0  0  0  0  0  0
  -12.2735    9.1731    2.2378 C   0  0  0  0  0  0  0  0  0  0  0  0
  -13.5244    8.9034    1.7292 C   0  0  0  0  0  0  0  0  0  0  0  0
  -19.6195    9.1129    0.0805 C   0  0  1  0  0  0  0  0  0  0  0  0
  -13.2615   10.1170   -1.6824 F   0  0  0  0  0  0  0  0  0  0  0  0
  -10.7958   10.6541   -0.6975 F   0  0  0  0  0  0  0  0  0  0  0  0
  -10.1168   10.0434    1.8780 F   0  0  0  0  0  0  0  0  0  0  0  0
  -11.9375    8.8667    3.5276 F   0  0  0  0  0  0  0  0  0  0  0  0
  -14.4250    8.3183    2.5520 F   0  0  0  0  0  0  0  0  0  0  0  0
  -17.3799    8.9889   -0.7420 N   0  0  0  0  0  0  0  0  0  0  0  0
  -15.6783    7.6752   -0.4627 N   0  0  0  0  0  0  0  0  0  0  0  0
  -16.9230    7.7549   -0.8568 N   0  0  0  0  0  0  0  0  0  0  0  0
  -21.3024    9.7357   -1.5440 O   0  0  0  0  0  0  0  0  0  0  0  0
  -22.0967    7.1848   -3.4459 O   0  0  0  0  0  0  0  0  0  0  0  0
  -18.8009    7.6262   -2.7716 O   0  0  0  0  0  0  0  0  0  0  0  0
  -19.1317    9.8826    1.1408 O   0  0  0  0  0  0  0  0  0  0  0  0
  -22.1761    8.4540    0.6213 S   0  0  0  0  0  0  0  0  0  0  0  0
  1  2  2  0
 16  1  1  0
  1 20  1  0
  2 17  1  0
  2 22  1  0
  4  3  1  0
  5  4  2  0
  7  4  1  0
  6  5  1  0
  9  6  2  0
  8  7  2  0
  9  8  1  0
 34  9  1  0
 21 10  1  0
 10 30  1  0
 10 34  1  6
 11 12  1  1
 13 11  1  0
 11 30  1  0
 12 31  1  0
 14 13  1  0
 13 32  1  1
 14 21  1  0
 14 27  1  1
 15 16  2  0
 15 27  1  0
 16 28  1  0
 17 18  2  0
 17 23  1  0
 18 19  1  0
 18 24  1  0
 19 20  2  0
 19 25  1  0
 20 26  1  0
 21 33  1  1
 27 29  1  0
 28 29  2  0
M  END
$$$$
