
     RDKit          3D

 34 37  0  0  0  0  0  0  0  0999 V2000
  -13.6502    8.8029    0.1884 C   0  0  0  0  0  0  0  0  0  0  0  0
  -12.5916    9.0428   -0.6801 C   0  0  0  0  0  0  0  0  0  0  0  0
  -27.3839   10.1877    0.9396 C   0  0  0  0  0  0  0  0  0  0  0  0
  -26.0423    9.6029    0.6309 C   0  0  0  0  0  0  0  0  0  0  0  0
  -25.2671    8.9557    1.5619 C   0  0  0  0  0  0  0  0  0  0  0  0
  -24.0283    8.4300    1.2188 C   0  0  0  0  0  0  0  0  0  0  0  0
  -25.5534    9.7143   -0.6522 C   0  0  0  0  0  0  0  0  0  0  0  0
  -24.3255    9.1953   -0.9997 C   0  0  0  0  0  0  0  0  0  0  0  0
  -23.5510    8.5443   -0.0541 C   0  0  0  0  0  0  0  0  0  0  0  0
  -20.8059    9.2800   -0.6817 C   0  0  1  0  0  0  0  0  0  0  0  0
  -20.2549    9.7413   -2.9062 C   0  0  2  0  0  0  0  0  0  0  0  0
  -20.7759    8.4713   -3.5353 C   0  0  0  0  0  0  0  0  0  0  0  0
  -18.7560    9.7131   -2.6931 C   0  0  1  0  0  0  0  0  0  0  0  0
  -18.3998    9.5196   -1.2694 C   0  0  1  0  0  0  0  0  0  0  0  0
  -16.0384    9.5596   -0.3893 C   0  0  0  0  0  0  0  0  0  0  0  0
  -14.9910    8.6681   -0.3541 C   0  0  0  0  0  0  0  0  0  0  0  0
  -11.3056    9.1681   -0.1448 C   0  0  0  0  0  0  0  0  0  0  0  0
  -11.0639    9.0605    1.2124 C   0  0  0  0  0  0  0  0  0  0  0  0
  -12.1113    8.8223    2.0805 C   0  0  0  0  0  0  0  0  0  0  0  0
  -13.3690    8.7024    1.5330 C   0  0  0  0  0  0  0  0  0  0  0  0
  -19.4210    8.7297   -0.4748 C   0  0  1  0  0  0  0  0  0  0  0  0
  -12.7284    9.1633   -2.0108 F   0  0  0  0  0  0  0  0  0  0  0  0
  -10.2472    9.4016   -0.9499 F   0  0  0  0  0  0  0  0  0  0  0  0
   -9.8107    9.1811    1.7385 F   0  0  0  0  0  0  0  0  0  0  0  0
  -11.8966    8.7122    3.4266 F   0  0  0  0  0  0  0  0  0  0  0  0
  -14.4018    8.4688    2.3751 F   0  0  0  0  0  0  0  0  0  0  0  0
  -17.1060    9.0067   -0.9959 N   0  0  0  0  0  0  0  0  0  0  0  0
  -15.4801    7.5732   -0.9609 N   0  0  0  0  0  0  0  0  0  0  0  0
  -16.7165    7.7893   -1.3290 N   0  0  0  0  0  0  0  0  0  0  0  0
  -20.9595   10.0636   -1.7835 O   0  0  0  0  0  0  0  0  0  0  0  0
  -21.3040    8.7243   -4.8108 O   0  0  0  0  0  0  0  0  0  0  0  0
  -18.2420    8.7928   -3.5765 O   0  0  0  0  0  0  0  0  0  0  0  0
  -19.0834    8.8932    0.8721 O   0  0  0  0  0  0  0  0  0  0  0  0
  -21.9824    7.9028   -0.6090 S   0  0  0  0  0  0  0  0  0  0  0  0
  1  2  2  0
 16  1  1  0
  1 20  1  0
  2 17  1  0
  2 22  1  0
  4  3  1  0
  5  4  2  0
  7  4  1  0
  6  5  1  0
  9  6  2  0
  8  7  2  0
  9  8  1  0
 34  9  1  0
 21 10  1  0
 10 30  1  0
 10 34  1  6
 11 12  1  1
 13 11  1  0
 11 30  1  0
 12 31  1  0
 14 13  1  0
 13 32  1  6
 14 21  1  0
 14 27  1  6
 15 16  2  0
 15 27  1  0
 16 28  1  0
 17 18  2  0
 17 23  1  0
 18 19  1  0
 18 24  1  0
 19 20  2  0
 19 25  1  0
 20 26  1  0
 21 33  1  1
 27 29  1  0
 28 29  2  0
M  END
$$$$
