
     RDKit          3D

 34 37  0  0  0  0  0  0  0  0999 V2000
  -13.3445    8.9052    0.1035 C   0  0  0  0  0  0  0  0  0  0  0  0
  -12.8358    8.6814    1.3777 C   0  0  0  0  0  0  0  0  0  0  0  0
  -26.4795    8.5673   -5.0363 C   0  0  0  0  0  0  0  0  0  0  0  0
  -25.3568    8.7141   -4.0590 C   0  0  0  0  0  0  0  0  0  0  0  0
  -25.3221    8.0724   -2.8451 C   0  0  0  0  0  0  0  0  0  0  0  0
  -24.2523    8.2444   -1.9765 C   0  0  0  0  0  0  0  0  0  0  0  0
  -24.2987    9.5327   -4.3878 C   0  0  0  0  0  0  0  0  0  0  0  0
  -23.2342    9.7081   -3.5311 C   0  0  0  0  0  0  0  0  0  0  0  0
  -23.2081    9.0568   -2.3093 C   0  0  0  0  0  0  0  0  0  0  0  0
  -20.3653    8.4988   -2.0298 C   0  0  1  0  0  0  0  0  0  0  0  0
  -20.0344    6.4288   -0.9952 C   0  0  2  0  0  0  0  0  0  0  0  0
  -20.8873    6.6509    0.2309 C   0  0  0  0  0  0  0  0  0  0  0  0
  -18.5592    6.6367   -0.7237 C   0  0  1  0  0  0  0  0  0  0  0  0
  -18.0631    7.9108   -1.2908 C   0  0  1  0  0  0  0  0  0  0  0  0
  -15.5900    8.0738   -0.8326 C   0  0  0  0  0  0  0  0  0  0  0  0
  -14.7841    8.9067   -0.0911 C   0  0  0  0  0  0  0  0  0  0  0  0
  -11.4482    8.6850    1.5515 C   0  0  0  0  0  0  0  0  0  0  0  0
  -10.5790    8.9032    0.4984 C   0  0  0  0  0  0  0  0  0  0  0  0
  -11.0781    9.1261   -0.7699 C   0  0  0  0  0  0  0  0  0  0  0  0
  -12.4469    9.1184   -0.9192 C   0  0  0  0  0  0  0  0  0  0  0  0
  -19.1098    9.0043   -1.3727 C   0  0  1  0  0  0  0  0  0  0  0  0
  -13.6000    8.4596    2.4598 F   0  0  0  0  0  0  0  0  0  0  0  0
  -10.9090    8.4719    2.7708 F   0  0  0  0  0  0  0  0  0  0  0  0
   -9.2246    8.9086    0.6639 F   0  0  0  0  0  0  0  0  0  0  0  0
  -10.2381    9.3442   -1.8268 F   0  0  0  0  0  0  0  0  0  0  0  0
  -12.9456    9.3359   -2.1579 F   0  0  0  0  0  0  0  0  0  0  0  0
  -16.8792    8.4475   -0.7233 N   0  0  0  0  0  0  0  0  0  0  0  0
  -15.6441    9.7818    0.4573 N   0  0  0  0  0  0  0  0  0  0  0  0
  -16.8631    9.4982    0.0770 N   0  0  0  0  0  0  0  0  0  0  0  0
  -20.4994    7.1450   -2.0589 O   0  0  0  0  0  0  0  0  0  0  0  0
  -21.7316    5.5533    0.4592 O   0  0  0  0  0  0  0  0  0  0  0  0
  -18.3708    6.4609    0.6272 O   0  0  0  0  0  0  0  0  0  0  0  0
  -18.5679   10.0079   -2.1813 O   0  0  0  0  0  0  0  0  0  0  0  0
  -21.7814    9.3458   -1.2792 S   0  0  0  0  0  0  0  0  0  0  0  0
  1  2  2  0
 16  1  1  0
  1 20  1  0
  2 17  1  0
  2 22  1  0
  4  3  1  0
  5  4  2  0
  7  4  1  0
  6  5  1  0
  9  6  2  0
  8  7  2  0
  9  8  1  0
 34  9  1  0
 21 10  1  0
 10 30  1  0
 10 34  1  1
 11 12  1  1
 13 11  1  0
 11 30  1  0
 12 31  1  0
 14 13  1  0
 13 32  1  1
 14 21  1  0
 14 27  1  1
 15 16  2  0
 15 27  1  0
 16 28  1  0
 17 18  2  0
 17 23  1  0
 18 19  1  0
 18 24  1  0
 19 20  2  0
 19 25  1  0
 20 26  1  0
 21 33  1  6
 27 29  1  0
 28 29  2  0
M  END
$$$$
