
     RDKit          3D

 34 37  0  0  0  0  0  0  0  0999 V2000
  -13.2423    9.2485    0.2965 C   0  0  0  0  0  0  0  0  0  0  0  0
  -12.6486    8.7901    1.4668 C   0  0  0  0  0  0  0  0  0  0  0  0
  -26.6680    9.1193   -4.2338 C   0  0  0  0  0  0  0  0  0  0  0  0
  -25.4508    9.1155   -3.3645 C   0  0  0  0  0  0  0  0  0  0  0  0
  -24.8002    7.9688   -2.9793 C   0  0  0  0  0  0  0  0  0  0  0  0
  -23.6720    8.0247   -2.1714 C   0  0  0  0  0  0  0  0  0  0  0  0
  -24.9501   10.3213   -2.9251 C   0  0  0  0  0  0  0  0  0  0  0  0
  -23.8316   10.3844   -2.1235 C   0  0  0  0  0  0  0  0  0  0  0  0
  -23.1822    9.2228   -1.7403 C   0  0  0  0  0  0  0  0  0  0  0  0
  -20.3210    8.7114   -1.5905 C   0  0  1  0  0  0  0  0  0  0  0  0
  -19.8634    6.5668   -0.7805 C   0  0  2  0  0  0  0  0  0  0  0  0
  -20.6754    6.6283    0.4911 C   0  0  0  0  0  0  0  0  0  0  0  0
  -18.3886    6.8135   -0.5420 C   0  0  1  0  0  0  0  0  0  0  0  0
  -17.9688    8.1585   -0.9960 C   0  0  1  0  0  0  0  0  0  0  0  0
  -15.4870    8.4084   -0.6337 C   0  0  0  0  0  0  0  0  0  0  0  0
  -14.6883    9.1897    0.1691 C   0  0  0  0  0  0  0  0  0  0  0  0
  -11.2559    8.8547    1.5773 C   0  0  0  0  0  0  0  0  0  0  0  0
  -10.4636    9.3579    0.5618 C   0  0  0  0  0  0  0  0  0  0  0  0
  -11.0473    9.8149   -0.6034 C   0  0  0  0  0  0  0  0  0  0  0  0
  -12.4195    9.7422   -0.6917 C   0  0  0  0  0  0  0  0  0  0  0  0
  -19.0625    9.2062   -0.9310 C   0  0  1  0  0  0  0  0  0  0  0  0
  -13.3344    8.2847    2.5052 F   0  0  0  0  0  0  0  0  0  0  0  0
  -10.6356    8.4208    2.6952 F   0  0  0  0  0  0  0  0  0  0  0  0
   -9.1046    9.4237    0.6660 F   0  0  0  0  0  0  0  0  0  0  0  0
  -10.2842   10.3166   -1.6213 F   0  0  0  0  0  0  0  0  0  0  0  0
  -13.0010   10.1875   -1.8292 F   0  0  0  0  0  0  0  0  0  0  0  0
  -16.7865    8.6898   -0.4200 N   0  0  0  0  0  0  0  0  0  0  0  0
  -15.5631    9.9391    0.8614 N   0  0  0  0  0  0  0  0  0  0  0  0
  -16.7837    9.6335    0.5042 N   0  0  0  0  0  0  0  0  0  0  0  0
  -20.3998    7.3624   -1.7501 O   0  0  0  0  0  0  0  0  0  0  0  0
  -21.7295    5.7023    0.4575 O   0  0  0  0  0  0  0  0  0  0  0  0
  -18.1395    6.5144    0.7771 O   0  0  0  0  0  0  0  0  0  0  0  0
  -18.5953   10.3079   -1.6539 O   0  0  0  0  0  0  0  0  0  0  0  0
  -21.7401    9.4154   -0.7092 S   0  0  0  0  0  0  0  0  0  0  0  0
  1  2  2  0
 16  1  1  0
  1 20  1  0
  2 17  1  0
  2 22  1  0
  4  3  1  0
  5  4  2  0
  7  4  1  0
  6  5  1  0
  9  6  2  0
  8  7  2  0
  9  8  1  0
 34  9  1  0
 21 10  1  0
 10 30  1  0
 10 34  1  1
 11 12  1  1
 13 11  1  0
 11 30  1  0
 12 31  1  0
 14 13  1  0
 13 32  1  1
 14 21  1  0
 14 27  1  1
 15 16  2  0
 15 27  1  0
 16 28  1  0
 17 18  2  0
 17 23  1  0
 18 19  1  0
 18 24  1  0
 19 20  2  0
 19 25  1  0
 20 26  1  0
 21 33  1  6
 27 29  1  0
 28 29  2  0
M  END
$$$$
