
     RDKit          3D

 34 37  0  0  0  0  0  0  0  0999 V2000
  -13.3669    8.8721    0.1353 C   0  0  0  0  0  0  0  0  0  0  0  0
  -12.9370    9.3289    1.3758 C   0  0  0  0  0  0  0  0  0  0  0  0
  -26.9888   11.0475   -1.3756 C   0  0  0  0  0  0  0  0  0  0  0  0
  -25.6362   10.5512   -0.9739 C   0  0  0  0  0  0  0  0  0  0  0  0
  -24.6405   10.2579   -1.8734 C   0  0  0  0  0  0  0  0  0  0  0  0
  -23.4014    9.8012   -1.4436 C   0  0  0  0  0  0  0  0  0  0  0  0
  -25.3680   10.3784    0.3662 C   0  0  0  0  0  0  0  0  0  0  0  0
  -24.1412    9.9258    0.7998 C   0  0  0  0  0  0  0  0  0  0  0  0
  -23.1434    9.6327   -0.1146 C   0  0  0  0  0  0  0  0  0  0  0  0
  -20.4117    8.9159   -0.8180 C   0  0  1  0  0  0  0  0  0  0  0  0
  -20.2503    6.6848   -1.4970 C   0  0  2  0  0  0  0  0  0  0  0  0
  -20.9054    6.0372   -0.3006 C   0  0  0  0  0  0  0  0  0  0  0  0
  -18.7385    6.6240   -1.4369 C   0  0  1  0  0  0  0  0  0  0  0  0
  -18.1417    7.9357   -1.0985 C   0  0  1  0  0  0  0  0  0  0  0  0
  -15.7777    8.7362   -0.7476 C   0  0  0  0  0  0  0  0  0  0  0  0
  -14.7064    8.3238    0.0110 C   0  0  0  0  0  0  0  0  0  0  0  0
  -11.6461    9.8565    1.4811 C   0  0  0  0  0  0  0  0  0  0  0  0
  -10.7960    9.9340    0.3932 C   0  0  0  0  0  0  0  0  0  0  0  0
  -11.2171    9.4819   -0.8419 C   0  0  0  0  0  0  0  0  0  0  0  0
  -12.4912    8.9662   -0.9236 C   0  0  0  0  0  0  0  0  0  0  0  0
  -19.0261    8.8182   -0.2399 C   0  0  1  0  0  0  0  0  0  0  0  0
  -13.6897    9.2939    2.4877 F   0  0  0  0  0  0  0  0  0  0  0  0
  -11.1856   10.3118    2.6658 F   0  0  0  0  0  0  0  0  0  0  0  0
   -9.5363   10.4490    0.4914 F   0  0  0  0  0  0  0  0  0  0  0  0
  -10.3941    9.5482   -1.9320 F   0  0  0  0  0  0  0  0  0  0  0  0
  -12.9132    8.5207   -2.1294 F   0  0  0  0  0  0  0  0  0  0  0  0
  -16.8331    7.9231   -0.5515 N   0  0  0  0  0  0  0  0  0  0  0  0
  -15.1690    7.2409    0.6587 N   0  0  0  0  0  0  0  0  0  0  0  0
  -16.4126    7.0219    0.3179 N   0  0  0  0  0  0  0  0  0  0  0  0
  -20.7376    7.9410   -1.7096 O   0  0  0  0  0  0  0  0  0  0  0  0
  -21.8780    5.1090   -0.7035 O   0  0  0  0  0  0  0  0  0  0  0  0
  -18.4113    5.5775   -0.6067 O   0  0  0  0  0  0  0  0  0  0  0  0
  -18.4523   10.0929   -0.2644 O   0  0  0  0  0  0  0  0  0  0  0  0
  -21.5908    9.0616    0.5511 S   0  0  0  0  0  0  0  0  0  0  0  0
  1  2  2  0
 16  1  1  0
  1 20  1  0
  2 17  1  0
  2 22  1  0
  4  3  1  0
  5  4  2  0
  7  4  1  0
  6  5  1  0
  9  6  2  0
  8  7  2  0
  9  8  1  0
 34  9  1  0
 21 10  1  0
 10 30  1  0
 10 34  1  1
 11 12  1  1
 13 11  1  0
 11 30  1  0
 12 31  1  0
 14 13  1  0
 13 32  1  1
 14 21  1  0
 14 27  1  1
 15 16  2  0
 15 27  1  0
 16 28  1  0
 17 18  2  0
 17 23  1  0
 18 19  1  0
 18 24  1  0
 19 20  2  0
 19 25  1  0
 20 26  1  0
 21 33  1  6
 27 29  1  0
 28 29  2  0
M  END
$$$$
