
     RDKit          3D

 34 37  0  0  0  0  0  0  0  0999 V2000
  -13.1472    8.8644    0.0082 C   0  0  0  0  0  0  0  0  0  0  0  0
  -12.7972    8.6472    1.3359 C   0  0  0  0  0  0  0  0  0  0  0  0
  -26.5738    7.5090   -4.4135 C   0  0  0  0  0  0  0  0  0  0  0  0
  -25.3251    8.0369   -3.7818 C   0  0  0  0  0  0  0  0  0  0  0  0
  -24.6695    9.1594   -4.2253 C   0  0  0  0  0  0  0  0  0  0  0  0
  -23.5133    9.6058   -3.5988 C   0  0  0  0  0  0  0  0  0  0  0  0
  -24.8007    7.3683   -2.6975 C   0  0  0  0  0  0  0  0  0  0  0  0
  -23.6542    7.8052   -2.0711 C   0  0  0  0  0  0  0  0  0  0  0  0
  -23.0002    8.9381   -2.5254 C   0  0  0  0  0  0  0  0  0  0  0  0
  -20.1291    8.5027   -2.3300 C   0  0  1  0  0  0  0  0  0  0  0  0
  -19.8094    6.5202   -1.1331 C   0  0  2  0  0  0  0  0  0  0  0  0
  -20.6494    6.8501    0.0776 C   0  0  0  0  0  0  0  0  0  0  0  0
  -18.3301    6.7340   -0.8911 C   0  0  1  0  0  0  0  0  0  0  0  0
  -17.8264    7.9526   -1.5638 C   0  0  1  0  0  0  0  0  0  0  0  0
  -15.3987    8.0064   -0.8884 C   0  0  0  0  0  0  0  0  0  0  0  0
  -14.5536    8.9469   -0.3461 C   0  0  0  0  0  0  0  0  0  0  0  0
  -11.4397    8.5723    1.6637 C   0  0  0  0  0  0  0  0  0  0  0  0
  -10.4477    8.7076    0.7098 C   0  0  0  0  0  0  0  0  0  0  0  0
  -10.7888    8.9235   -0.6109 C   0  0  0  0  0  0  0  0  0  0  0  0
  -12.1306    8.9938   -0.9121 C   0  0  0  0  0  0  0  0  0  0  0  0
  -18.8631    9.0468   -1.7260 C   0  0  1  0  0  0  0  0  0  0  0  0
  -13.6884    8.5030    2.3304 F   0  0  0  0  0  0  0  0  0  0  0  0
  -11.0527    8.3623    2.9400 F   0  0  0  0  0  0  0  0  0  0  0  0
   -9.1222    8.6362    1.0256 F   0  0  0  0  0  0  0  0  0  0  0  0
   -9.8254    9.0602   -1.5718 F   0  0  0  0  0  0  0  0  0  0  0  0
  -12.4751    9.2052   -2.2032 F   0  0  0  0  0  0  0  0  0  0  0  0
  -16.6324    8.5213   -1.0511 N   0  0  0  0  0  0  0  0  0  0  0  0
  -15.3332   10.0313   -0.1959 N   0  0  0  0  0  0  0  0  0  0  0  0
  -16.5438    9.7642   -0.6129 N   0  0  0  0  0  0  0  0  0  0  0  0
  -20.2767    7.1525   -2.2478 O   0  0  0  0  0  0  0  0  0  0  0  0
  -21.5098    5.7875    0.3947 O   0  0  0  0  0  0  0  0  0  0  0  0
  -18.1316    6.6666    0.4682 O   0  0  0  0  0  0  0  0  0  0  0  0
  -18.3184    9.9756   -2.6178 O   0  0  0  0  0  0  0  0  0  0  0  0
  -21.5303    9.4226   -1.6396 S   0  0  0  0  0  0  0  0  0  0  0  0
  1  2  2  0
 16  1  1  0
  1 20  1  0
  2 17  1  0
  2 22  1  0
  4  3  1  0
  5  4  2  0
  7  4  1  0
  6  5  1  0
  9  6  2  0
  8  7  2  0
  9  8  1  0
 34  9  1  0
 21 10  1  0
 10 30  1  0
 10 34  1  1
 11 12  1  1
 13 11  1  0
 11 30  1  0
 12 31  1  0
 14 13  1  0
 13 32  1  1
 14 21  1  0
 14 27  1  1
 15 16  2  0
 15 27  1  0
 16 28  1  0
 17 18  2  0
 17 23  1  0
 18 19  1  0
 18 24  1  0
 19 20  2  0
 19 25  1  0
 20 26  1  0
 21 33  1  6
 27 29  1  0
 28 29  2  0
M  END
$$$$
