
     RDKit          3D

 10 10  0  0  0  0  0  0  0  0999 V2000
  -17.4763   -2.7702  -26.9588 C   0  0  0  0  0  0  0  0  0  0  0  0
  -16.9149   -3.4127  -29.2529 C   0  0  0  0  0  0  0  0  0  0  0  0
  -16.9034   -6.6559  -26.0066 C   0  0  0  0  0  0  0  0  0  0  0  0
  -14.8528   -6.7659  -27.2339 C   0  0  0  0  0  0  0  0  0  0  0  0
  -17.1206   -5.3711  -26.4815 C   0  0  0  0  0  0  0  0  0  0  0  0
  -15.0743   -5.4878  -27.7029 C   0  0  0  0  0  0  0  0  0  0  0  0
  -15.7805   -7.3592  -26.3731 C   0  0  0  0  0  0  0  0  0  0  0  0
  -16.1946   -4.7988  -27.3312 C   0  0  0  0  0  0  0  0  0  0  0  0
  -16.4325   -3.4356  -27.8306 C   0  0  2  0  0  0  0  0  0  0  0  0
  -15.5657   -8.6381  -25.8995 O   0  0  0  0  0  0  0  0  0  0  0  0
  9  1  1  1
  9  2  1  0
  5  3  2  0
  3  7  1  0
  6  4  1  0
  4  7  2  0
  8  5  1  0
  8  6  2  0
  7 10  1  0
  8  9  1  0
M  END
$$$$
