
     RDKit          3D

 10 10  0  0  0  0  0  0  0  0999 V2000
  -17.0513   -3.5835  -29.4290 C   0  0  0  0  0  0  0  0  0  0  0  0
  -15.8979   -2.3511  -27.6565 C   0  0  0  0  0  0  0  0  0  0  0  0
  -14.7758   -6.4688  -27.2631 C   0  0  0  0  0  0  0  0  0  0  0  0
  -16.8187   -6.6749  -26.0355 C   0  0  0  0  0  0  0  0  0  0  0  0
  -15.1990   -5.2474  -27.7655 C   0  0  0  0  0  0  0  0  0  0  0  0
  -17.2342   -5.4597  -26.5385 C   0  0  0  0  0  0  0  0  0  0  0  0
  -15.5713   -7.1876  -26.4028 C   0  0  0  0  0  0  0  0  0  0  0  0
  -16.4341   -4.7544  -27.3931 C   0  0  0  0  0  0  0  0  0  0  0  0
  -16.8756   -3.4581  -27.9304 C   0  0  2  0  0  0  0  0  0  0  0  0
  -15.1486   -8.4033  -25.9035 O   0  0  0  0  0  0  0  0  0  0  0  0
  9  1  1  6
  9  2  1  0
  5  3  2  0
  3  7  1  0
  6  4  1  0
  4  7  2  0
  8  5  1  0
  8  6  2  0
  7 10  1  0
  8  9  1  0
M  END
$$$$
