
     RDKit          3D

 10 10  0  0  0  0  0  0  0  0999 V2000
  -16.3425   -2.3614  -27.3377 C   0  0  0  0  0  0  0  0  0  0  0  0
  -17.2901   -3.4035  -29.3393 C   0  0  0  0  0  0  0  0  0  0  0  0
  -14.7504   -6.7272  -27.2779 C   0  0  0  0  0  0  0  0  0  0  0  0
  -16.8683   -6.3983  -26.2152 C   0  0  0  0  0  0  0  0  0  0  0  0
  -14.8793   -5.5035  -27.9174 C   0  0  0  0  0  0  0  0  0  0  0  0
  -16.9908   -5.1820  -26.8541 C   0  0  0  0  0  0  0  0  0  0  0  0
  -15.7316   -7.1829  -26.4298 C   0  0  0  0  0  0  0  0  0  0  0  0
  -16.0083   -4.7399  -27.6950 C   0  0  0  0  0  0  0  0  0  0  0  0
  -16.1373   -3.4429  -28.3771 C   0  0  2  0  0  0  0  0  0  0  0  0
  -15.6018   -8.4015  -25.7939 O   0  0  0  0  0  0  0  0  0  0  0  0
  9  1  1  1
  9  2  1  0
  5  3  2  0
  3  7  1  0
  6  4  1  0
  4  7  2  0
  8  5  1  0
  8  6  2  0
  7 10  1  0
  8  9  1  0
M  END
$$$$
