
     RDKit          3D

 10 10  0  0  0  0  0  0  0  0999 V2000
  -16.4399   -2.4444  -27.2111 C   0  0  0  0  0  0  0  0  0  0  0  0
  -17.5551   -3.4461  -29.1459 C   0  0  0  0  0  0  0  0  0  0  0  0
  -14.8675   -6.8157  -27.3673 C   0  0  0  0  0  0  0  0  0  0  0  0
  -16.8857   -6.4993  -26.1222 C   0  0  0  0  0  0  0  0  0  0  0  0
  -15.0442   -5.5798  -27.9710 C   0  0  0  0  0  0  0  0  0  0  0  0
  -17.0560   -5.2710  -26.7259 C   0  0  0  0  0  0  0  0  0  0  0  0
  -15.7754   -7.2838  -26.4472 C   0  0  0  0  0  0  0  0  0  0  0  0
  -16.1464   -4.8166  -27.6392 C   0  0  0  0  0  0  0  0  0  0  0  0
  -16.3264   -3.5067  -28.2839 C   0  0  2  0  0  0  0  0  0  0  0  0
  -15.5981   -8.5144  -25.8471 O   0  0  0  0  0  0  0  0  0  0  0  0
  9  1  1  1
  9  2  1  0
  5  3  2  0
  3  7  1  0
  6  4  1  0
  4  7  2  0
  8  5  1  0
  8  6  2  0
  7 10  1  0
  8  9  1  0
M  END
$$$$
