
     RDKit          3D

 10 10  0  0  0  0  0  0  0  0999 V2000
  -17.6196   -3.7194  -29.2947 C   0  0  0  0  0  0  0  0  0  0  0  0
  -15.5670   -2.7232  -28.4086 C   0  0  0  0  0  0  0  0  0  0  0  0
  -17.0178   -6.6442  -26.0187 C   0  0  0  0  0  0  0  0  0  0  0  0
  -15.0141   -6.7264  -27.3231 C   0  0  0  0  0  0  0  0  0  0  0  0
  -17.3201   -5.4029  -26.5581 C   0  0  0  0  0  0  0  0  0  0  0  0
  -15.3200   -5.4916  -27.8561 C   0  0  0  0  0  0  0  0  0  0  0  0
  -15.8751   -7.3119  -26.3906 C   0  0  0  0  0  0  0  0  0  0  0  0
  -16.4591   -4.8377  -27.4783 C   0  0  0  0  0  0  0  0  0  0  0  0
  -16.7871   -3.5208  -28.0458 C   0  0  2  0  0  0  0  0  0  0  0  0
  -15.5757   -8.5476  -25.8527 O   0  0  0  0  0  0  0  0  0  0  0  0
  9  1  1  6
  9  2  1  0
  5  3  2  0
  3  7  1  0
  6  4  1  0
  4  7  2  0
  8  5  1  0
  8  6  2  0
  7 10  1  0
  8  9  1  0
M  END
$$$$
