
     RDKit          3D

 10 10  0  0  0  0  0  0  0  0999 V2000
  -17.1896   -3.6169  -29.6747 C   0  0  0  0  0  0  0  0  0  0  0  0
  -15.7251   -2.4609  -28.0906 C   0  0  0  0  0  0  0  0  0  0  0  0
  -16.8757   -6.7233  -26.3563 C   0  0  0  0  0  0  0  0  0  0  0  0
  -14.8478   -6.6068  -27.6202 C   0  0  0  0  0  0  0  0  0  0  0  0
  -17.2489   -5.4772  -26.8371 C   0  0  0  0  0  0  0  0  0  0  0  0
  -15.2244   -5.3678  -28.0950 C   0  0  0  0  0  0  0  0  0  0  0  0
  -15.6852   -7.2953  -26.7379 C   0  0  0  0  0  0  0  0  0  0  0  0
  -16.4106   -4.8097  -27.7082 C   0  0  0  0  0  0  0  0  0  0  0  0
  -16.8139   -3.4884  -28.2137 C   0  0  2  0  0  0  0  0  0  0  0  0
  -15.3151   -8.5359  -26.2584 O   0  0  0  0  0  0  0  0  0  0  0  0
  9  1  1  6
  9  2  1  0
  5  3  2  0
  3  7  1  0
  6  4  1  0
  4  7  2  0
  8  5  1  0
  8  6  2  0
  7 10  1  0
  8  9  1  0
M  END
$$$$
