
     RDKit          3D

 10 10  0  0  0  0  0  0  0  0999 V2000
  -17.3995   -3.6708  -29.4470 C   0  0  0  0  0  0  0  0  0  0  0  0
  -15.7581   -2.5439  -28.0235 C   0  0  0  0  0  0  0  0  0  0  0  0
  -14.9299   -6.6553  -27.4921 C   0  0  0  0  0  0  0  0  0  0  0  0
  -16.9278   -6.7736  -26.1815 C   0  0  0  0  0  0  0  0  0  0  0  0
  -15.3082   -5.4055  -27.9590 C   0  0  0  0  0  0  0  0  0  0  0  0
  -17.2987   -5.5303  -26.6494 C   0  0  0  0  0  0  0  0  0  0  0  0
  -15.7259   -7.3452  -26.6087 C   0  0  0  0  0  0  0  0  0  0  0  0
  -16.4988   -4.8544  -27.5275 C   0  0  0  0  0  0  0  0  0  0  0  0
  -16.8928   -3.5281  -28.0274 C   0  0  2  0  0  0  0  0  0  0  0  0
  -15.3478   -8.5893  -26.1448 O   0  0  0  0  0  0  0  0  0  0  0  0
  9  1  1  6
  9  2  1  0
  5  3  2  0
  3  7  1  0
  6  4  1  0
  4  7  2  0
  8  5  1  0
  8  6  2  0
  7 10  1  0
  8  9  1  0
M  END
$$$$
