
     RDKit          3D

 10 10  0  0  0  0  0  0  0  0999 V2000
  -17.1612   -2.5802  -27.0577 C   0  0  0  0  0  0  0  0  0  0  0  0
  -17.1717   -3.4362  -29.3506 C   0  0  0  0  0  0  0  0  0  0  0  0
  -14.9129   -6.7620  -27.2889 C   0  0  0  0  0  0  0  0  0  0  0  0
  -17.0064   -6.5818  -26.1454 C   0  0  0  0  0  0  0  0  0  0  0  0
  -15.0887   -5.4908  -27.8146 C   0  0  0  0  0  0  0  0  0  0  0  0
  -17.1757   -5.3181  -26.6712 C   0  0  0  0  0  0  0  0  0  0  0  0
  -15.8584   -7.3152  -26.4584 C   0  0  0  0  0  0  0  0  0  0  0  0
  -16.2285   -4.7790  -27.4958 C   0  0  0  0  0  0  0  0  0  0  0  0
  -16.4073   -3.4312  -28.0575 C   0  0  2  0  0  0  0  0  0  0  0  0
  -15.6819   -8.5808  -25.9358 O   0  0  0  0  0  0  0  0  0  0  0  0
  9  1  1  1
  9  2  1  0
  5  3  2  0
  3  7  1  0
  6  4  1  0
  4  7  2  0
  8  5  1  0
  8  6  2  0
  7 10  1  0
  8  9  1  0
M  END
$$$$
