
     RDKit          3D

 10 10  0  0  0  0  0  0  0  0999 V2000
  -17.4408   -3.4827  -29.4156 C   0  0  0  0  0  0  0  0  0  0  0  0
  -15.6221   -2.4405  -28.1520 C   0  0  0  0  0  0  0  0  0  0  0  0
  -17.0232   -6.5560  -26.1593 C   0  0  0  0  0  0  0  0  0  0  0  0
  -15.0172   -6.5609  -27.4627 C   0  0  0  0  0  0  0  0  0  0  0  0
  -17.3362   -5.2944  -26.6425 C   0  0  0  0  0  0  0  0  0  0  0  0
  -15.3337   -5.3061  -27.9398 C   0  0  0  0  0  0  0  0  0  0  0  0
  -15.8740   -7.1958  -26.5591 C   0  0  0  0  0  0  0  0  0  0  0  0
  -16.4793   -4.6803  -27.5347 C   0  0  0  0  0  0  0  0  0  0  0  0
  -16.8185   -3.3420  -28.0425 C   0  0  2  0  0  0  0  0  0  0  0  0
  -15.5639   -8.4518  -26.0772 O   0  0  0  0  0  0  0  0  0  0  0  0
  9  1  1  6
  9  2  1  0
  5  3  2  0
  3  7  1  0
  6  4  1  0
  4  7  2  0
  8  5  1  0
  8  6  2  0
  7 10  1  0
  8  9  1  0
M  END
$$$$
