
     RDKit          3D

 10 10  0  0  0  0  0  0  0  0999 V2000
  -17.2408   -3.7456  -29.3260 C   0  0  0  0  0  0  0  0  0  0  0  0
  -15.4254   -2.5702  -28.1801 C   0  0  0  0  0  0  0  0  0  0  0  0
  -16.6963   -6.6427  -25.9764 C   0  0  0  0  0  0  0  0  0  0  0  0
  -14.6233   -6.5668  -27.1682 C   0  0  0  0  0  0  0  0  0  0  0  0
  -17.0607   -5.4242  -26.5294 C   0  0  0  0  0  0  0  0  0  0  0  0
  -14.9913   -5.3552  -27.7150 C   0  0  0  0  0  0  0  0  0  0  0  0
  -15.4880   -7.2208  -26.2859 C   0  0  0  0  0  0  0  0  0  0  0  0
  -16.1954   -4.7907  -27.3995 C   0  0  0  0  0  0  0  0  0  0  0  0
  -16.5895   -3.4986  -27.9818 C   0  0  2  0  0  0  0  0  0  0  0  0
  -15.1267   -8.4338  -25.7346 O   0  0  0  0  0  0  0  0  0  0  0  0
  9  1  1  6
  9  2  1  0
  5  3  2  0
  3  7  1  0
  6  4  1  0
  4  7  2  0
  8  5  1  0
  8  6  2  0
  7 10  1  0
  8  9  1  0
M  END
$$$$
