
     RDKit          3D

 10 10  0  0  0  0  0  0  0  0999 V2000
  -16.8061   -3.6286  -29.4594 C   0  0  0  0  0  0  0  0  0  0  0  0
  -15.8833   -2.4292  -27.5357 C   0  0  0  0  0  0  0  0  0  0  0  0
  -16.7350   -6.7452  -26.0054 C   0  0  0  0  0  0  0  0  0  0  0  0
  -14.7442   -6.6262  -27.3266 C   0  0  0  0  0  0  0  0  0  0  0  0
  -17.1439   -5.5190  -26.5080 C   0  0  0  0  0  0  0  0  0  0  0  0
  -15.1561   -5.4070  -27.8229 C   0  0  0  0  0  0  0  0  0  0  0  0
  -15.5449   -7.3058  -26.4043 C   0  0  0  0  0  0  0  0  0  0  0  0
  -16.3415   -4.8600  -27.4187 C   0  0  0  0  0  0  0  0  0  0  0  0
  -16.7825   -3.5599  -27.9471 C   0  0  2  0  0  0  0  0  0  0  0  0
  -15.1393   -8.5266  -25.9030 O   0  0  0  0  0  0  0  0  0  0  0  0
  9  1  1  6
  9  2  1  0
  5  3  2  0
  3  7  1  0
  6  4  1  0
  4  7  2  0
  8  5  1  0
  8  6  2  0
  7 10  1  0
  8  9  1  0
M  END
$$$$
