
     RDKit          3D

 10 10  0  0  0  0  0  0  0  0999 V2000
  -15.5897   -3.2415  -28.9741 C   0  0  0  0  0  0  0  0  0  0  0  0
  -17.0600   -2.7325  -27.0847 C   0  0  0  0  0  0  0  0  0  0  0  0
  -14.8873   -6.9392  -27.5231 C   0  0  0  0  0  0  0  0  0  0  0  0
  -16.7461   -6.8363  -26.0204 C   0  0  0  0  0  0  0  0  0  0  0  0
  -15.2491   -5.7116  -28.0573 C   0  0  0  0  0  0  0  0  0  0  0  0
  -17.1009   -5.6157  -26.5557 C   0  0  0  0  0  0  0  0  0  0  0  0
  -15.6229   -7.5085  -26.5108 C   0  0  0  0  0  0  0  0  0  0  0  0
  -16.3615   -5.0600  -27.5619 C   0  0  0  0  0  0  0  0  0  0  0  0
  -16.7384   -3.7581  -28.1340 C   0  0  2  0  0  0  0  0  0  0  0  0
  -15.2615   -8.7306  -25.9800 O   0  0  0  0  0  0  0  0  0  0  0  0
  9  1  1  1
  9  2  1  0
  5  3  2  0
  3  7  1  0
  6  4  1  0
  4  7  2  0
  8  5  1  0
  8  6  2  0
  7 10  1  0
  8  9  1  0
M  END
$$$$
