
     RDKit          3D

 10 10  0  0  0  0  0  0  0  0999 V2000
  -16.6846   -3.5173  -29.3720 C   0  0  0  0  0  0  0  0  0  0  0  0
  -16.5965   -2.4370  -27.1775 C   0  0  0  0  0  0  0  0  0  0  0  0
  -16.9651   -6.7867  -25.9462 C   0  0  0  0  0  0  0  0  0  0  0  0
  -14.9720   -6.6081  -27.2572 C   0  0  0  0  0  0  0  0  0  0  0  0
  -17.4169   -5.5830  -26.4660 C   0  0  0  0  0  0  0  0  0  0  0  0
  -15.4267   -5.4114  -27.7707 C   0  0  0  0  0  0  0  0  0  0  0  0
  -15.7521   -7.3066  -26.3314 C   0  0  0  0  0  0  0  0  0  0  0  0
  -16.6344   -4.9049  -27.3799 C   0  0  0  0  0  0  0  0  0  0  0  0
  -17.1209   -3.6288  -27.9265 C   0  0  2  0  0  0  0  0  0  0  0  0
  -15.3038   -8.5050  -25.8130 O   0  0  0  0  0  0  0  0  0  0  0  0
  9  1  1  6
  9  2  1  0
  5  3  2  0
  3  7  1  0
  6  4  1  0
  4  7  2  0
  8  5  1  0
  8  6  2  0
  7 10  1  0
  8  9  1  0
M  END
$$$$
