
     RDKit          3D

 10 10  0  0  0  0  0  0  0  0999 V2000
  -17.8551   -3.7242  -29.2531 C   0  0  0  0  0  0  0  0  0  0  0  0
  -15.6979   -2.8171  -28.5360 C   0  0  0  0  0  0  0  0  0  0  0  0
  -15.1769   -6.7193  -27.2470 C   0  0  0  0  0  0  0  0  0  0  0  0
  -17.2502   -6.6608  -26.0549 C   0  0  0  0  0  0  0  0  0  0  0  0
  -15.4594   -5.4805  -27.8026 C   0  0  0  0  0  0  0  0  0  0  0  0
  -17.5257   -5.4289  -26.6106 C   0  0  0  0  0  0  0  0  0  0  0  0
  -16.0585   -7.3163  -26.3773 C   0  0  0  0  0  0  0  0  0  0  0  0
  -16.6411   -4.8457  -27.4740 C   0  0  0  0  0  0  0  0  0  0  0  0
  -16.9332   -3.5318  -28.0676 C   0  0  2  0  0  0  0  0  0  0  0  0
  -15.7758   -8.5496  -25.8251 O   0  0  0  0  0  0  0  0  0  0  0  0
  9  1  1  6
  9  2  1  0
  5  3  2  0
  3  7  1  0
  6  4  1  0
  4  7  2  0
  8  5  1  0
  8  6  2  0
  7 10  1  0
  8  9  1  0
M  END
$$$$
