
     RDKit          3D

 10 10  0  0  0  0  0  0  0  0999 V2000
  -17.1501   -3.6225  -29.3617 C   0  0  0  0  0  0  0  0  0  0  0  0
  -15.8295   -2.4050  -27.6991 C   0  0  0  0  0  0  0  0  0  0  0  0
  -16.7694   -6.6959  -25.9762 C   0  0  0  0  0  0  0  0  0  0  0  0
  -14.7875   -6.5485  -27.3080 C   0  0  0  0  0  0  0  0  0  0  0  0
  -17.1901   -5.4674  -26.4632 C   0  0  0  0  0  0  0  0  0  0  0  0
  -15.2111   -5.3271  -27.7888 C   0  0  0  0  0  0  0  0  0  0  0  0
  -15.5778   -7.2437  -26.3882 C   0  0  0  0  0  0  0  0  0  0  0  0
  -16.3979   -4.7930  -27.3715 C   0  0  0  0  0  0  0  0  0  0  0  0
  -16.8513   -3.4905  -27.8834 C   0  0  2  0  0  0  0  0  0  0  0  0
  -15.1605   -8.4668  -25.9024 O   0  0  0  0  0  0  0  0  0  0  0  0
  9  1  1  6
  9  2  1  0
  5  3  2  0
  3  7  1  0
  6  4  1  0
  4  7  2  0
  8  5  1  0
  8  6  2  0
  7 10  1  0
  8  9  1  0
M  END
$$$$
