
     RDKit          3D

 10 10  0  0  0  0  0  0  0  0999 V2000
  -16.4028   -2.5368  -27.2385 C   0  0  0  0  0  0  0  0  0  0  0  0
  -17.6088   -3.5240  -29.1258 C   0  0  0  0  0  0  0  0  0  0  0  0
  -16.9608   -6.5729  -26.1276 C   0  0  0  0  0  0  0  0  0  0  0  0
  -14.9425   -6.9329  -27.3604 C   0  0  0  0  0  0  0  0  0  0  0  0
  -17.1175   -5.3391  -26.7411 C   0  0  0  0  0  0  0  0  0  0  0  0
  -15.1037   -5.7048  -27.9673 C   0  0  0  0  0  0  0  0  0  0  0  0
  -15.8845   -7.3740  -26.4268 C   0  0  0  0  0  0  0  0  0  0  0  0
  -16.1781   -4.9174  -27.6615 C   0  0  0  0  0  0  0  0  0  0  0  0
  -16.3517   -3.6074  -28.3078 C   0  0  2  0  0  0  0  0  0  0  0  0
  -15.7299   -8.6021  -25.8151 O   0  0  0  0  0  0  0  0  0  0  0  0
  9  1  1  1
  9  2  1  0
  5  3  2  0
  3  7  1  0
  6  4  1  0
  4  7  2  0
  8  5  1  0
  8  6  2  0
  7 10  1  0
  8  9  1  0
M  END
$$$$
