
     RDKit          3D

 48 48  0  0  0  0  0  0  0  0999 V2000
    8.1191    7.6564   27.1194 N   0  0  0  0  0  4  0  0  0  0  0  0
    7.1086    6.9686   26.3907 C   0  0  2  0  0  0  0  0  0  0  0  0
    7.5822    5.7810   25.6511 C   0  0  0  0  0  0  0  0  0  0  0  0
    8.5946    5.1936   26.1261 O   0  0  0  0  0  0  0  0  0  0  0  0
    6.3687    7.8835   25.4360 C   0  0  0  0  0  0  0  0  0  0  0  0
    5.9919    7.2168   24.1495 C   0  0  0  0  0  0  0  0  0  0  0  0
    7.0156    5.2471   24.4756 N   0  0  0  0  0  0  0  0  0  0  0  0
    7.5026    4.0285   23.9235 C   0  0  2  0  0  0  0  0  0  0  0  0
    8.6665    4.1805   23.0050 C   0  0  0  0  0  0  0  0  0  0  0  0
    8.4955    4.1631   21.7477 O   0  0  0  0  0  0  0  0  0  0  0  0
    6.3870    3.2187   23.2721 C   0  0  0  0  0  0  0  0  0  0  0  0
    9.9746    4.3474   23.5086 N   0  0  0  0  0  0  0  0  0  0  0  0
   11.1485    4.7305   22.7954 C   0  0  2  0  0  0  0  0  0  0  0  0
   11.7118    3.6515   21.9472 C   0  0  0  0  0  0  0  0  0  0  0  0
   11.5321    2.4367   22.3441 O   0  0  0  0  0  0  0  0  0  0  0  0
   12.1787    5.4811   23.5906 C   0  0  0  0  0  0  0  0  0  0  0  0
   11.7899    6.8215   24.0081 C   0  0  0  0  0  0  0  0  0  0  0  0
   10.6730    7.2884   23.7208 O   0  0  0  0  0  0  0  0  0  0  0  0
   12.6675    7.6100   24.7461 O   0  0  0  0  0  0  0  0  0  0  0  0
   12.4185    3.8143   20.7663 N   0  0  0  0  0  0  0  0  0  0  0  0
   13.1655    2.7964   20.0342 C   0  0  2  0  0  0  0  0  0  0  0  0
   14.5856    2.8146   20.3951 C   0  0  0  0  0  0  0  0  0  0  0  0
   15.0241    3.7968   21.0978 O   0  0  0  0  0  0  0  0  0  0  0  0
   12.8475    2.8426   18.5847 C   0  0  2  0  0  0  0  0  0  0  0  0
   13.2863    4.0091   17.9782 O   0  0  0  0  0  0  0  0  0  0  0  0
   11.3663    2.6380   18.3100 C   0  0  0  0  0  0  0  0  0  0  0  0
   15.4912    1.8267   20.0258 N   0  0  0  0  0  0  0  0  0  0  0  0
   16.9311    1.8770   20.1054 C   0  0  2  0  0  0  0  0  0  0  0  0
   17.5115    1.8222   18.7347 C   0  0  0  0  0  0  0  0  0  0  0  0
   16.7369    1.9750   17.7690 O   0  0  0  0  0  0  0  0  0  0  0  0
   17.4867    0.8839   21.0431 C   0  0  2  0  0  0  0  0  0  0  0  0
   17.1051   -0.4083   20.6136 O   0  0  0  0  0  0  0  0  0  0  0  0
   16.7881    1.0593   22.3996 C   0  0  0  0  0  0  0  0  0  0  0  0
   18.9028    1.6057   18.5784 N   0  0  0  0  0  0  0  0  0  0  0  0
   19.5325    1.6648   17.2576 C   0  0  2  0  0  0  0  0  0  0  0  0
   20.9774    1.3719   17.3867 C   0  0  0  0  0  0  0  0  0  0  0  0
   21.6285    2.0651   18.1895 O   0  0  0  0  0  0  0  0  0  0  0  0
   19.3108    3.1268   16.8166 C   0  0  2  0  0  0  0  0  0  0  0  0
   19.9453    4.0158   17.6686 O   0  0  0  0  0  0  0  0  0  0  0  0
   17.9034    3.5204   16.5573 C   0  0  0  0  0  0  0  0  0  0  0  0
   21.6128    0.3441   16.6387 N   0  0  0  0  0  0  0  0  0  0  0  0
   22.9838    0.0148   16.5519 C   0  0  2  0  0  0  0  0  0  0  0  0
   23.9507    1.0922   16.7817 C   0  0  0  0  0  0  0  0  0  0  0  0
   25.3111    0.7122   16.9967 O   0  0  0  0  0  0  0  0  0  0  0  0
   23.1585   -0.5213   15.1182 C   0  0  0  0  0  0  0  0  0  0  0  0
   21.7579   -0.7738   14.6385 C   0  0  0  0  0  0  0  0  0  0  0  0
   20.9066   -0.6951   15.8596 C   0  0  0  0  0  0  0  0  0  0  0  0
   23.7507    2.3094   16.8162 O   0  0  0  0  0  0  0  0  0  0  0  0
  2  1  1  6
  2  3  1  0
  2  5  1  0
  3  4  2  0
  3  7  1  0
  5  6  1  0
  7  8  1  0
  8  9  1  0
  8 11  1  6
  9 10  2  0
  9 12  1  0
 12 13  1  0
 13 14  1  0
 13 16  1  1
 14 15  2  0
 14 20  1  0
 16 17  1  0
 17 18  2  0
 17 19  1  0
 21 20  1  1
 21 22  1  0
 21 24  1  0
 22 23  2  0
 22 27  1  0
 24 25  1  0
 24 26  1  1
 28 27  1  6
 28 29  1  0
 28 31  1  0
 29 30  2  0
 29 34  1  0
 31 32  1  0
 31 33  1  1
 35 34  1  1
 35 36  1  0
 35 38  1  0
 36 37  2  0
 36 41  1  0
 38 39  1  0
 38 40  1  1
 41 42  1  0
 41 47  1  0
 42 43  1  6
 42 45  1  0
 43 44  1  0
 43 48  2  0
 45 46  1  0
 46 47  1  0
M  CHG  1   1   1
M  END
$$$$
