
     RDKit          3D

 48 48  0  0  0  0  0  0  0  0999 V2000
    5.3988    3.6937   26.8109 N   0  0  0  0  0  4  0  0  0  0  0  0
    6.6811    3.0764   26.8073 C   0  0  2  0  0  0  0  0  0  0  0  0
    7.6917    3.7592   25.9741 C   0  0  0  0  0  0  0  0  0  0  0  0
    8.8243    3.2045   25.9023 O   0  0  0  0  0  0  0  0  0  0  0  0
    6.6123    1.6172   26.4051 C   0  0  0  0  0  0  0  0  0  0  0  0
    7.7039    1.2102   25.4647 C   0  0  0  0  0  0  0  0  0  0  0  0
    7.5122    4.9607   25.2587 N   0  0  0  0  0  0  0  0  0  0  0  0
    8.5798    5.5216   24.5019 C   0  0  2  0  0  0  0  0  0  0  0  0
    9.2146    4.5865   23.5301 C   0  0  0  0  0  0  0  0  0  0  0  0
    9.5172    3.4058   23.8830 O   0  0  0  0  0  0  0  0  0  0  0  0
    9.6232    6.1780   25.3990 C   0  0  0  0  0  0  0  0  0  0  0  0
    9.4900    4.9894   22.2056 N   0  0  0  0  0  0  0  0  0  0  0  0
    9.9858    4.1945   21.1305 C   0  0  2  0  0  0  0  0  0  0  0  0
   11.2962    3.5584   21.4119 C   0  0  0  0  0  0  0  0  0  0  0  0
   11.3911    2.8599   22.4928 O   0  0  0  0  0  0  0  0  0  0  0  0
    9.8891    4.8122   19.7644 C   0  0  0  0  0  0  0  0  0  0  0  0
    8.6007    5.4093   19.4392 C   0  0  0  0  0  0  0  0  0  0  0  0
    8.5195    6.5734   19.0076 O   0  0  0  0  0  0  0  0  0  0  0  0
    7.4267    4.6803   19.6032 O   0  0  0  0  0  0  0  0  0  0  0  0
   12.4376    3.6397   20.6302 N   0  0  0  0  0  0  0  0  0  0  0  0
   13.6998    2.9348   20.8305 C   0  0  2  0  0  0  0  0  0  0  0  0
   14.6303    3.1832   19.7261 C   0  0  0  0  0  0  0  0  0  0  0  0
   14.6881    2.3245   18.7721 O   0  0  0  0  0  0  0  0  0  0  0  0
   13.4644    1.5149   21.1946 C   0  0  2  0  0  0  0  0  0  0  0  0
   14.4721    0.9931   21.9904 O   0  0  0  0  0  0  0  0  0  0  0  0
   13.2536    0.6317   19.9753 C   0  0  0  0  0  0  0  0  0  0  0  0
   15.4549    4.2993   19.6444 N   0  0  0  0  0  0  0  0  0  0  0  0
   16.8902    4.3465   19.7858 C   0  0  2  0  0  0  0  0  0  0  0  0
   17.4760    3.0331   19.3980 C   0  0  0  0  0  0  0  0  0  0  0  0
   16.9449    2.0017   19.8563 O   0  0  0  0  0  0  0  0  0  0  0  0
   17.3183    4.8386   21.1082 C   0  0  2  0  0  0  0  0  0  0  0  0
   17.0284    3.8488   22.0759 O   0  0  0  0  0  0  0  0  0  0  0  0
   16.4227    6.0255   21.4932 C   0  0  0  0  0  0  0  0  0  0  0  0
   18.5965    3.0017   18.5317 N   0  0  0  0  0  0  0  0  0  0  0  0
   19.2006    1.7314   18.1243 C   0  0  2  0  0  0  0  0  0  0  0  0
   20.5295    1.9872   17.5251 C   0  0  0  0  0  0  0  0  0  0  0  0
   20.5912    2.8419   16.6226 O   0  0  0  0  0  0  0  0  0  0  0  0
   18.2205    1.1889   17.0632 C   0  0  2  0  0  0  0  0  0  0  0  0
   18.2137    1.9805   15.9265 O   0  0  0  0  0  0  0  0  0  0  0  0
   16.8457    0.8953   17.5392 C   0  0  0  0  0  0  0  0  0  0  0  0
   21.6985    1.3004   17.9512 N   0  0  0  0  0  0  0  0  0  0  0  0
   23.0393    1.4724   17.5409 C   0  0  2  0  0  0  0  0  0  0  0  0
   23.2684    1.9925   16.1899 C   0  0  0  0  0  0  0  0  0  0  0  0
   24.1821    3.0829   16.0574 O   0  0  0  0  0  0  0  0  0  0  0  0
   23.6564    0.0651   17.6501 C   0  0  0  0  0  0  0  0  0  0  0  0
   22.6674   -0.7162   18.4670 C   0  0  0  0  0  0  0  0  0  0  0  0
   21.7435    0.3029   19.0414 C   0  0  0  0  0  0  0  0  0  0  0  0
   22.7720    1.6123   15.1259 O   0  0  0  0  0  0  0  0  0  0  0  0
  2  1  1  6
  2  3  1  0
  2  5  1  0
  3  4  2  0
  3  7  1  0
  5  6  1  0
  7  8  1  0
  8  9  1  0
  8 11  1  1
  9 10  2  0
  9 12  1  0
 12 13  1  0
 13 14  1  0
 13 16  1  6
 14 15  2  0
 14 20  1  0
 16 17  1  0
 17 18  2  0
 17 19  1  0
 21 20  1  6
 21 22  1  0
 21 24  1  0
 22 23  2  0
 22 27  1  0
 24 25  1  0
 24 26  1  6
 28 27  1  1
 28 29  1  0
 28 31  1  0
 29 30  2  0
 29 34  1  0
 31 32  1  0
 31 33  1  1
 35 34  1  6
 35 36  1  0
 35 38  1  0
 36 37  2  0
 36 41  1  0
 38 39  1  0
 38 40  1  1
 41 42  1  0
 41 47  1  0
 42 43  1  6
 42 45  1  0
 43 44  1  0
 43 48  2  0
 45 46  1  0
 46 47  1  0
M  CHG  1   1   1
M  END
$$$$
