
     RDKit          3D

 48 48  0  0  0  0  0  0  0  0999 V2000
    5.4445    7.4144   23.6558 N   0  0  0  0  0  4  0  0  0  0  0  0
    6.5119    7.0778   24.5348 C   0  0  2  0  0  0  0  0  0  0  0  0
    7.0765    5.7283   24.3306 C   0  0  0  0  0  0  0  0  0  0  0  0
    7.9342    5.3474   25.1762 O   0  0  0  0  0  0  0  0  0  0  0  0
    6.1252    7.2372   25.9912 C   0  0  0  0  0  0  0  0  0  0  0  0
    4.6758    6.9671   26.2519 C   0  0  0  0  0  0  0  0  0  0  0  0
    6.7511    4.8344   23.2901 N   0  0  0  0  0  0  0  0  0  0  0  0
    7.2920    3.5176   23.2684 C   0  0  2  0  0  0  0  0  0  0  0  0
    8.7807    3.4547   23.2307 C   0  0  0  0  0  0  0  0  0  0  0  0
    9.4603    4.5074   23.0301 O   0  0  0  0  0  0  0  0  0  0  0  0
    6.6751    2.6726   22.1595 C   0  0  0  0  0  0  0  0  0  0  0  0
    9.4629    2.2330   23.4169 N   0  0  0  0  0  0  0  0  0  0  0  0
   10.8703    2.0035   23.4155 C   0  0  2  0  0  0  0  0  0  0  0  0
   11.4826    2.0515   22.0650 C   0  0  0  0  0  0  0  0  0  0  0  0
   10.8752    1.4154   21.1206 O   0  0  0  0  0  0  0  0  0  0  0  0
   11.3443    0.8542   24.2590 C   0  0  0  0  0  0  0  0  0  0  0  0
   12.7882    0.6664   24.3033 C   0  0  0  0  0  0  0  0  0  0  0  0
   13.2875   -0.4590   24.4825 O   0  0  0  0  0  0  0  0  0  0  0  0
   13.6435    1.7520   24.1403 O   0  0  0  0  0  0  0  0  0  0  0  0
   12.6489    2.7108   21.7110 N   0  0  0  0  0  0  0  0  0  0  0  0
   13.2553    2.7872   20.3856 C   0  0  2  0  0  0  0  0  0  0  0  0
   14.6100    2.2284   20.3861 C   0  0  0  0  0  0  0  0  0  0  0  0
   15.1473    1.9319   21.5149 O   0  0  0  0  0  0  0  0  0  0  0  0
   13.0963    4.1443   19.8050 C   0  0  2  0  0  0  0  0  0  0  0  0
   13.8354    5.1038   20.4791 O   0  0  0  0  0  0  0  0  0  0  0  0
   11.6398    4.5719   19.7223 C   0  0  0  0  0  0  0  0  0  0  0  0
   15.3513    1.9938   19.2338 N   0  0  0  0  0  0  0  0  0  0  0  0
   16.7520    1.6599   19.1401 C   0  0  2  0  0  0  0  0  0  0  0  0
   17.4985    2.7948   18.5290 C   0  0  0  0  0  0  0  0  0  0  0  0
   16.8796    3.8602   18.3349 O   0  0  0  0  0  0  0  0  0  0  0  0
   16.9865    0.3563   18.4920 C   0  0  2  0  0  0  0  0  0  0  0  0
   16.3794    0.3692   17.2148 O   0  0  0  0  0  0  0  0  0  0  0  0
   16.2130   -0.7159   19.2737 C   0  0  0  0  0  0  0  0  0  0  0  0
   18.8660    2.6281   18.1986 N   0  0  0  0  0  0  0  0  0  0  0  0
   19.6371    3.7205   17.6014 C   0  0  2  0  0  0  0  0  0  0  0  0
   21.0075    3.2496   17.3005 C   0  0  0  0  0  0  0  0  0  0  0  0
   21.8555    4.1140   17.0134 O   0  0  0  0  0  0  0  0  0  0  0  0
   19.6615    4.7937   18.7098 C   0  0  2  0  0  0  0  0  0  0  0  0
   20.1582    4.2846   19.8985 O   0  0  0  0  0  0  0  0  0  0  0  0
   18.3970    5.5427   18.9162 C   0  0  0  0  0  0  0  0  0  0  0  0
   21.3618    1.8737   17.3369 N   0  0  0  0  0  0  0  0  0  0  0  0
   22.4140    1.2009   16.6768 C   0  0  2  0  0  0  0  0  0  0  0  0
   22.8934    1.7743   15.4159 C   0  0  0  0  0  0  0  0  0  0  0  0
   24.1379    1.2877   14.9101 O   0  0  0  0  0  0  0  0  0  0  0  0
   21.8571   -0.2103   16.4087 C   0  0  0  0  0  0  0  0  0  0  0  0
   20.6370   -0.3041   17.2794 C   0  0  0  0  0  0  0  0  0  0  0  0
   20.7282    0.8598   18.2064 C   0  0  0  0  0  0  0  0  0  0  0  0
   22.3611    2.6380   14.7133 O   0  0  0  0  0  0  0  0  0  0  0  0
  2  1  1  6
  2  3  1  0
  2  5  1  0
  3  4  2  0
  3  7  1  0
  5  6  1  0
  7  8  1  0
  8  9  1  0
  8 11  1  6
  9 10  2  0
  9 12  1  0
 12 13  1  0
 13 14  1  0
 13 16  1  6
 14 15  2  0
 14 20  1  0
 16 17  1  0
 17 18  2  0
 17 19  1  0
 21 20  1  1
 21 22  1  0
 21 24  1  0
 22 23  2  0
 22 27  1  0
 24 25  1  0
 24 26  1  1
 28 27  1  6
 28 29  1  0
 28 31  1  0
 29 30  2  0
 29 34  1  0
 31 32  1  0
 31 33  1  1
 35 34  1  1
 35 36  1  0
 35 38  1  0
 36 37  2  0
 36 41  1  0
 38 39  1  0
 38 40  1  1
 41 42  1  0
 41 47  1  0
 42 43  1  6
 42 45  1  0
 43 44  1  0
 43 48  2  0
 45 46  1  0
 46 47  1  0
M  CHG  1   1   1
M  END
$$$$
