
     RDKit          3D

 48 48  0  0  0  0  0  0  0  0999 V2000
    6.3186    7.4692   24.8130 N   0  0  0  0  0  4  0  0  0  0  0  0
    5.4285    6.6046   24.1164 C   0  0  2  0  0  0  0  0  0  0  0  0
    6.0687    5.4200   23.5093 C   0  0  0  0  0  0  0  0  0  0  0  0
    5.2960    4.5924   22.9492 O   0  0  0  0  0  0  0  0  0  0  0  0
    4.6344    7.3369   23.0538 C   0  0  0  0  0  0  0  0  0  0  0  0
    3.6544    6.4602   22.3377 C   0  0  0  0  0  0  0  0  0  0  0  0
    7.4482    5.1292   23.4968 N   0  0  0  0  0  0  0  0  0  0  0  0
    7.9410    3.9752   22.8243 C   0  0  2  0  0  0  0  0  0  0  0  0
    9.4180    3.7907   22.9018 C   0  0  0  0  0  0  0  0  0  0  0  0
   10.1491    4.6924   23.4142 O   0  0  0  0  0  0  0  0  0  0  0  0
    7.4512    3.9106   21.3820 C   0  0  0  0  0  0  0  0  0  0  0  0
   10.0320    2.6176   22.4122 N   0  0  0  0  0  0  0  0  0  0  0  0
   11.4108    2.2584   22.4688 C   0  0  2  0  0  0  0  0  0  0  0  0
   12.1206    2.4053   21.1744 C   0  0  0  0  0  0  0  0  0  0  0  0
   11.5987    1.8231   20.1477 O   0  0  0  0  0  0  0  0  0  0  0  0
   11.7222    0.9793   23.1928 C   0  0  0  0  0  0  0  0  0  0  0  0
   11.2727    0.9206   24.5772 C   0  0  0  0  0  0  0  0  0  0  0  0
   11.8026    1.6216   25.4581 O   0  0  0  0  0  0  0  0  0  0  0  0
   10.2301    0.0743   24.9424 O   0  0  0  0  0  0  0  0  0  0  0  0
   13.2959    3.1054   20.9527 N   0  0  0  0  0  0  0  0  0  0  0  0
   14.0318    3.2251   19.6980 C   0  0  2  0  0  0  0  0  0  0  0  0
   14.9480    2.0974   19.5077 C   0  0  0  0  0  0  0  0  0  0  0  0
   15.2705    1.3935   20.5330 O   0  0  0  0  0  0  0  0  0  0  0  0
   14.6103    4.5841   19.5479 C   0  0  2  0  0  0  0  0  0  0  0  0
   15.6310    4.8332   20.4520 O   0  0  0  0  0  0  0  0  0  0  0  0
   13.5560    5.6756   19.6389 C   0  0  0  0  0  0  0  0  0  0  0  0
   15.4887    1.7378   18.2786 N   0  0  0  0  0  0  0  0  0  0  0  0
   16.5479    0.7912   18.0249 C   0  0  2  0  0  0  0  0  0  0  0  0
   17.7146    1.4938   17.4216 C   0  0  0  0  0  0  0  0  0  0  0  0
   17.8575    1.4264   16.1844 O   0  0  0  0  0  0  0  0  0  0  0  0
   16.0902   -0.3899   17.2701 C   0  0  2  0  0  0  0  0  0  0  0  0
   15.6382    0.0321   15.9982 O   0  0  0  0  0  0  0  0  0  0  0  0
   14.8345   -0.9444   17.9590 C   0  0  0  0  0  0  0  0  0  0  0  0
   18.6054    2.2068   18.2615 N   0  0  0  0  0  0  0  0  0  0  0  0
   19.7496    2.9323   17.7056 C   0  0  2  0  0  0  0  0  0  0  0  0
   20.9958    2.4485   18.3405 C   0  0  0  0  0  0  0  0  0  0  0  0
   21.0688    2.5248   19.5806 O   0  0  0  0  0  0  0  0  0  0  0  0
   19.4728    4.3988   18.0977 C   0  0  2  0  0  0  0  0  0  0  0  0
   20.4400    5.2510   17.5909 O   0  0  0  0  0  0  0  0  0  0  0  0
   19.2175    4.6485   19.5383 C   0  0  0  0  0  0  0  0  0  0  0  0
   22.0731    1.9117   17.5849 N   0  0  0  0  0  0  0  0  0  0  0  0
   23.3392    1.4630   18.0222 C   0  0  2  0  0  0  0  0  0  0  0  0
   23.8788    2.0600   19.2473 C   0  0  0  0  0  0  0  0  0  0  0  0
   25.2846    1.9343   19.4694 O   0  0  0  0  0  0  0  0  0  0  0  0
   24.2845    1.7815   16.8482 C   0  0  0  0  0  0  0  0  0  0  0  0
   23.3668    2.0692   15.6947 C   0  0  0  0  0  0  0  0  0  0  0  0
   22.0222    1.6043   16.1398 C   0  0  0  0  0  0  0  0  0  0  0  0
   23.2759    2.6703   20.1344 O   0  0  0  0  0  0  0  0  0  0  0  0
  2  1  1  6
  2  3  1  0
  2  5  1  0
  3  4  2  0
  3  7  1  0
  5  6  1  0
  7  8  1  0
  8  9  1  0
  8 11  1  6
  9 10  2  0
  9 12  1  0
 12 13  1  0
 13 14  1  0
 13 16  1  6
 14 15  2  0
 14 20  1  0
 16 17  1  0
 17 18  2  0
 17 19  1  0
 21 20  1  1
 21 22  1  0
 21 24  1  0
 22 23  2  0
 22 27  1  0
 24 25  1  0
 24 26  1  1
 28 27  1  6
 28 29  1  0
 28 31  1  0
 29 30  2  0
 29 34  1  0
 31 32  1  0
 31 33  1  1
 35 34  1  1
 35 36  1  0
 35 38  1  0
 36 37  2  0
 36 41  1  0
 38 39  1  0
 38 40  1  1
 41 42  1  0
 41 47  1  0
 42 43  1  1
 42 45  1  0
 43 44  1  0
 43 48  2  0
 45 46  1  0
 46 47  1  0
M  CHG  1   1   1
M  END
$$$$
