
     RDKit          3D

 48 48  0  0  0  0  0  0  0  0999 V2000
    5.4381    3.7495   24.4866 N   0  0  0  0  0  4  0  0  0  0  0  0
    5.8820    3.2729   23.2212 C   0  0  2  0  0  0  0  0  0  0  0  0
    6.8630    4.1449   22.5436 C   0  0  0  0  0  0  0  0  0  0  0  0
    6.5223    5.3507   22.3835 O   0  0  0  0  0  0  0  0  0  0  0  0
    4.7291    2.9981   22.2770 C   0  0  0  0  0  0  0  0  0  0  0  0
    5.1557    2.3589   20.9921 C   0  0  0  0  0  0  0  0  0  0  0  0
    8.1317    3.7608   22.0633 N   0  0  0  0  0  0  0  0  0  0  0  0
    9.3037    4.4603   22.4684 C   0  0  2  0  0  0  0  0  0  0  0  0
   10.4738    3.5906   22.7786 C   0  0  0  0  0  0  0  0  0  0  0  0
   10.2980    2.4308   23.2625 O   0  0  0  0  0  0  0  0  0  0  0  0
    9.0165    5.4281   23.6109 C   0  0  0  0  0  0  0  0  0  0  0  0
   11.7931    4.0332   22.5417 N   0  0  0  0  0  0  0  0  0  0  0  0
   12.4899    4.0934   21.2989 C   0  0  2  0  0  0  0  0  0  0  0  0
   13.1428    2.8171   20.9170 C   0  0  0  0  0  0  0  0  0  0  0  0
   13.0358    1.8313   21.7429 O   0  0  0  0  0  0  0  0  0  0  0  0
   13.3539    5.3051   21.0939 C   0  0  0  0  0  0  0  0  0  0  0  0
   12.6428    6.5748   21.0281 C   0  0  0  0  0  0  0  0  0  0  0  0
   11.4012    6.6232   21.0920 O   0  0  0  0  0  0  0  0  0  0  0  0
   13.3461    7.7683   20.8955 O   0  0  0  0  0  0  0  0  0  0  0  0
   13.8632    2.5733   19.7586 N   0  0  0  0  0  0  0  0  0  0  0  0
   15.0402    1.7232   19.6105 C   0  0  2  0  0  0  0  0  0  0  0  0
   16.2361    2.5157   19.3120 C   0  0  0  0  0  0  0  0  0  0  0  0
   16.0806    3.7086   18.8608 O   0  0  0  0  0  0  0  0  0  0  0  0
   14.7595    0.5780   18.7083 C   0  0  2  0  0  0  0  0  0  0  0  0
   14.7215    0.9468   17.3727 O   0  0  0  0  0  0  0  0  0  0  0  0
   13.4813   -0.1546   19.0830 C   0  0  0  0  0  0  0  0  0  0  0  0
   17.5353    2.0553   19.4925 N   0  0  0  0  0  0  0  0  0  0  0  0
   18.7513    2.6148   18.9535 C   0  0  2  0  0  0  0  0  0  0  0  0
   19.9270    1.8888   19.5094 C   0  0  0  0  0  0  0  0  0  0  0  0
   20.0405    1.8302   20.7502 O   0  0  0  0  0  0  0  0  0  0  0  0
   18.8173    4.0811   19.0946 C   0  0  2  0  0  0  0  0  0  0  0  0
   18.7093    4.6654   17.8113 O   0  0  0  0  0  0  0  0  0  0  0  0
   20.2291    4.4559   19.5693 C   0  0  0  0  0  0  0  0  0  0  0  0
   20.8591    1.2956   18.6226 N   0  0  0  0  0  0  0  0  0  0  0  0
   21.7617    0.2346   19.0747 C   0  0  2  0  0  0  0  0  0  0  0  0
   23.1598    0.6152   18.7736 C   0  0  0  0  0  0  0  0  0  0  0  0
   23.3829    1.1264   17.6611 O   0  0  0  0  0  0  0  0  0  0  0  0
   21.3361   -0.9855   18.2315 C   0  0  2  0  0  0  0  0  0  0  0  0
   21.7030   -0.8380   16.9039 O   0  0  0  0  0  0  0  0  0  0  0  0
   19.9198   -1.4075   18.3687 C   0  0  0  0  0  0  0  0  0  0  0  0
   24.2165    0.4183   19.7034 N   0  0  0  0  0  0  0  0  0  0  0  0
   25.5870    0.7395   19.5846 C   0  0  2  0  0  0  0  0  0  0  0  0
   26.1541    0.7807   18.2337 C   0  0  0  0  0  0  0  0  0  0  0  0
   27.5786    0.7764   18.1243 O   0  0  0  0  0  0  0  0  0  0  0  0
   26.3076   -0.3509   20.4002 C   0  0  0  0  0  0  0  0  0  0  0  0
   25.2188   -0.9960   21.2089 C   0  0  0  0  0  0  0  0  0  0  0  0
   24.0464   -0.0841   21.0833 C   0  0  0  0  0  0  0  0  0  0  0  0
   25.5606    0.8194   17.1523 O   0  0  0  0  0  0  0  0  0  0  0  0
  2  1  1  1
  2  3  1  0
  2  5  1  0
  3  4  2  0
  3  7  1  0
  5  6  1  0
  7  8  1  0
  8  9  1  0
  8 11  1  1
  9 10  2  0
  9 12  1  0
 12 13  1  0
 13 14  1  0
 13 16  1  1
 14 15  2  0
 14 20  1  0
 16 17  1  0
 17 18  2  0
 17 19  1  0
 21 20  1  6
 21 22  1  0
 21 24  1  0
 22 23  2  0
 22 27  1  0
 24 25  1  0
 24 26  1  1
 28 27  1  1
 28 29  1  0
 28 31  1  0
 29 30  2  0
 29 34  1  0
 31 32  1  0
 31 33  1  6
 35 34  1  6
 35 36  1  0
 35 38  1  0
 36 37  2  0
 36 41  1  0
 38 39  1  0
 38 40  1  6
 41 42  1  0
 41 47  1  0
 42 43  1  6
 42 45  1  0
 43 44  1  0
 43 48  2  0
 45 46  1  0
 46 47  1  0
M  CHG  1   1   1
M  END
$$$$
