
     RDKit          3D

 48 48  0  0  0  0  0  0  0  0999 V2000
    5.3349    3.3937   26.2512 N   0  0  0  0  0  4  0  0  0  0  0  0
    5.7491    4.7389   26.0413 C   0  0  2  0  0  0  0  0  0  0  0  0
    6.5536    4.9530   24.8212 C   0  0  0  0  0  0  0  0  0  0  0  0
    7.0563    6.1029   24.6777 O   0  0  0  0  0  0  0  0  0  0  0  0
    6.4988    5.2991   27.2329 C   0  0  0  0  0  0  0  0  0  0  0  0
    7.8502    4.6837   27.4247 C   0  0  0  0  0  0  0  0  0  0  0  0
    6.8101    4.0032   23.8114 N   0  0  0  0  0  0  0  0  0  0  0  0
    7.6430    4.3283   22.7034 C   0  0  2  0  0  0  0  0  0  0  0  0
    9.1046    4.1841   22.9577 C   0  0  0  0  0  0  0  0  0  0  0  0
    9.7635    5.1439   23.4626 O   0  0  0  0  0  0  0  0  0  0  0  0
    7.3142    5.7043   22.1352 C   0  0  0  0  0  0  0  0  0  0  0  0
    9.7832    2.9862   22.6464 N   0  0  0  0  0  0  0  0  0  0  0  0
   11.1904    2.7635   22.5866 C   0  0  2  0  0  0  0  0  0  0  0  0
   11.6955    2.4932   21.2181 C   0  0  0  0  0  0  0  0  0  0  0  0
   10.8358    2.5271   20.2562 O   0  0  0  0  0  0  0  0  0  0  0  0
   11.7504    1.8450   23.6353 C   0  0  0  0  0  0  0  0  0  0  0  0
   10.8601    1.5560   24.7515 C   0  0  0  0  0  0  0  0  0  0  0  0
   10.1428    2.4414   25.2510 O   0  0  0  0  0  0  0  0  0  0  0  0
   10.7921    0.2712   25.2819 O   0  0  0  0  0  0  0  0  0  0  0  0
   13.0034    2.2031   20.8637 N   0  0  0  0  0  0  0  0  0  0  0  0
   13.7145    2.6422   19.6671 C   0  0  2  0  0  0  0  0  0  0  0  0
   15.0682    2.0833   19.6163 C   0  0  0  0  0  0  0  0  0  0  0  0
   15.7849    2.1225   20.6819 O   0  0  0  0  0  0  0  0  0  0  0  0
   13.5946    4.1108   19.4857 C   0  0  2  0  0  0  0  0  0  0  0  0
   14.7170    4.7967   19.9228 O   0  0  0  0  0  0  0  0  0  0  0  0
   12.3481    4.6762   20.1473 C   0  0  0  0  0  0  0  0  0  0  0  0
   15.6255    1.5059   18.4812 N   0  0  0  0  0  0  0  0  0  0  0  0
   16.9537    0.9623   18.3308 C   0  0  2  0  0  0  0  0  0  0  0  0
   17.9173    2.0628   18.0495 C   0  0  0  0  0  0  0  0  0  0  0  0
   17.4539    3.2016   17.8395 O   0  0  0  0  0  0  0  0  0  0  0  0
   17.0081   -0.1561   17.3713 C   0  0  2  0  0  0  0  0  0  0  0  0
   16.7521    0.3464   16.0744 O   0  0  0  0  0  0  0  0  0  0  0  0
   15.8272   -1.0950   17.6591 C   0  0  0  0  0  0  0  0  0  0  0  0
   19.3059    1.7823   18.0346 N   0  0  0  0  0  0  0  0  0  0  0  0
   20.2820    2.8193   17.6933 C   0  0  2  0  0  0  0  0  0  0  0  0
   21.6440    2.2406   17.7152 C   0  0  0  0  0  0  0  0  0  0  0  0
   22.0000    1.6640   18.7590 O   0  0  0  0  0  0  0  0  0  0  0  0
   20.1142    3.8588   18.8211 C   0  0  2  0  0  0  0  0  0  0  0  0
   20.4590    3.3303   20.0542 O   0  0  0  0  0  0  0  0  0  0  0  0
   18.8074    4.5608   18.8678 C   0  0  0  0  0  0  0  0  0  0  0  0
   22.5217    2.3246   16.6006 N   0  0  0  0  0  0  0  0  0  0  0  0
   23.8723    1.9251   16.4906 C   0  0  2  0  0  0  0  0  0  0  0  0
   24.6737    1.9163   17.7178 C   0  0  0  0  0  0  0  0  0  0  0  0
   25.7235    0.9509   17.8039 O   0  0  0  0  0  0  0  0  0  0  0  0
   24.4876    2.9264   15.4945 C   0  0  0  0  0  0  0  0  0  0  0  0
   23.3045    3.5967   14.8569 C   0  0  0  0  0  0  0  0  0  0  0  0
   22.1288    2.7669   15.2458 C   0  0  0  0  0  0  0  0  0  0  0  0
   24.5673    2.6423   18.7101 O   0  0  0  0  0  0  0  0  0  0  0  0
  2  1  1  1
  2  3  1  0
  2  5  1  0
  3  4  2  0
  3  7  1  0
  5  6  1  0
  7  8  1  0
  8  9  1  0
  8 11  1  1
  9 10  2  0
  9 12  1  0
 12 13  1  0
 13 14  1  0
 13 16  1  1
 14 15  2  0
 14 20  1  0
 16 17  1  0
 17 18  2  0
 17 19  1  0
 21 20  1  1
 21 22  1  0
 21 24  1  0
 22 23  2  0
 22 27  1  0
 24 25  1  0
 24 26  1  1
 28 27  1  6
 28 29  1  0
 28 31  1  0
 29 30  2  0
 29 34  1  0
 31 32  1  0
 31 33  1  1
 35 34  1  1
 35 36  1  0
 35 38  1  0
 36 37  2  0
 36 41  1  0
 38 39  1  0
 38 40  1  1
 41 42  1  0
 41 47  1  0
 42 43  1  1
 42 45  1  0
 43 44  1  0
 43 48  2  0
 45 46  1  0
 46 47  1  0
M  CHG  1   1   1
M  END
$$$$
