
     RDKit          3D

 48 48  0  0  0  0  0  0  0  0999 V2000
    5.7907    2.3459   25.4764 N   0  0  0  0  0  4  0  0  0  0  0  0
    6.7266    3.3879   25.7286 C   0  0  2  0  0  0  0  0  0  0  0  0
    7.2917    4.0156   24.5169 C   0  0  0  0  0  0  0  0  0  0  0  0
    8.2216    4.8504   24.7016 O   0  0  0  0  0  0  0  0  0  0  0  0
    7.8604    2.9336   26.6252 C   0  0  0  0  0  0  0  0  0  0  0  0
    7.4595    2.7910   28.0606 C   0  0  0  0  0  0  0  0  0  0  0  0
    6.8939    3.7728   23.1863 N   0  0  0  0  0  0  0  0  0  0  0  0
    7.4474    4.5279   22.1137 C   0  0  2  0  0  0  0  0  0  0  0  0
    8.8326    5.0249   22.3499 C   0  0  0  0  0  0  0  0  0  0  0  0
    9.0438    5.9579   23.1836 O   0  0  0  0  0  0  0  0  0  0  0  0
    6.5206    5.6591   21.6829 C   0  0  0  0  0  0  0  0  0  0  0  0
    9.9323    4.4726   21.6582 N   0  0  0  0  0  0  0  0  0  0  0  0
   10.9251    3.5788   22.1571 C   0  0  2  0  0  0  0  0  0  0  0  0
   11.9473    3.1989   21.1513 C   0  0  0  0  0  0  0  0  0  0  0  0
   11.6591    2.2214   20.3596 O   0  0  0  0  0  0  0  0  0  0  0  0
   10.4133    2.4248   22.9717 C   0  0  0  0  0  0  0  0  0  0  0  0
   11.4369    1.5448   23.5192 C   0  0  0  0  0  0  0  0  0  0  0  0
   11.5983    0.3915   23.0810 O   0  0  0  0  0  0  0  0  0  0  0  0
   12.2633    1.9835   24.5493 O   0  0  0  0  0  0  0  0  0  0  0  0
   13.1896    3.7873   20.9748 N   0  0  0  0  0  0  0  0  0  0  0  0
   14.0650    3.6753   19.8124 C   0  0  2  0  0  0  0  0  0  0  0  0
   14.7655    2.3882   19.7946 C   0  0  0  0  0  0  0  0  0  0  0  0
   14.1877    1.3716   20.3269 O   0  0  0  0  0  0  0  0  0  0  0  0
   14.9037    4.8906   19.6588 C   0  0  2  0  0  0  0  0  0  0  0  0
   15.8651    5.0053   20.6506 O   0  0  0  0  0  0  0  0  0  0  0  0
   14.0735    6.1622   19.5886 C   0  0  0  0  0  0  0  0  0  0  0  0
   16.0213    2.1978   19.2297 N   0  0  0  0  0  0  0  0  0  0  0  0
   16.6619    0.9456   18.9075 C   0  0  2  0  0  0  0  0  0  0  0  0
   17.9872    1.2069   18.2800 C   0  0  0  0  0  0  0  0  0  0  0  0
   18.6919    0.2228   17.9787 O   0  0  0  0  0  0  0  0  0  0  0  0
   15.7903    0.0395   18.1371 C   0  0  2  0  0  0  0  0  0  0  0  0
   15.4457    0.6692   16.9186 O   0  0  0  0  0  0  0  0  0  0  0  0
   14.4573   -0.0997   18.8874 C   0  0  0  0  0  0  0  0  0  0  0  0
   18.3930    2.5441   18.0470 N   0  0  0  0  0  0  0  0  0  0  0  0
   19.7450    2.8516   17.5758 C   0  0  2  0  0  0  0  0  0  0  0  0
   20.6860    1.8230   18.0725 C   0  0  0  0  0  0  0  0  0  0  0  0
   20.5959    1.5015   19.2714 O   0  0  0  0  0  0  0  0  0  0  0  0
   20.0483    4.2219   18.2172 C   0  0  2  0  0  0  0  0  0  0  0  0
   20.2463    4.1101   19.5836 O   0  0  0  0  0  0  0  0  0  0  0  0
   19.1043    5.3177   17.8844 C   0  0  0  0  0  0  0  0  0  0  0  0
   21.6556    1.2126   17.2316 N   0  0  0  0  0  0  0  0  0  0  0  0
   22.8851    0.6068   17.5733 C   0  0  2  0  0  0  0  0  0  0  0  0
   23.5516    1.0769   18.7912 C   0  0  0  0  0  0  0  0  0  0  0  0
   23.7390    2.4865   18.9291 O   0  0  0  0  0  0  0  0  0  0  0  0
   23.7968    0.8818   16.3623 C   0  0  0  0  0  0  0  0  0  0  0  0
   22.8573    1.3273   15.2786 C   0  0  0  0  0  0  0  0  0  0  0  0
   21.4947    0.9885   15.7792 C   0  0  0  0  0  0  0  0  0  0  0  0
   23.9835    0.4111   19.7363 O   0  0  0  0  0  0  0  0  0  0  0  0
  2  1  1  6
  2  3  1  0
  2  5  1  0
  3  4  2  0
  3  7  1  0
  5  6  1  0
  7  8  1  0
  8  9  1  0
  8 11  1  1
  9 10  2  0
  9 12  1  0
 12 13  1  0
 13 14  1  0
 13 16  1  6
 14 15  2  0
 14 20  1  0
 16 17  1  0
 17 18  2  0
 17 19  1  0
 21 20  1  1
 21 22  1  0
 21 24  1  0
 22 23  2  0
 22 27  1  0
 24 25  1  0
 24 26  1  1
 28 27  1  6
 28 29  1  0
 28 31  1  0
 29 30  2  0
 29 34  1  0
 31 32  1  0
 31 33  1  1
 35 34  1  1
 35 36  1  0
 35 38  1  0
 36 37  2  0
 36 41  1  0
 38 39  1  0
 38 40  1  1
 41 42  1  0
 41 47  1  0
 42 43  1  1
 42 45  1  0
 43 44  1  0
 43 48  2  0
 45 46  1  0
 46 47  1  0
M  CHG  1   1   1
M  END
$$$$
