
     RDKit          3D

 48 48  0  0  0  0  0  0  0  0999 V2000
   18.4233   -2.4609   14.4055 N   0  0  0  0  0  4  0  0  0  0  0  0
   19.8425   -2.4524   14.3006 C   0  0  2  0  0  0  0  0  0  0  0  0
   20.5531   -2.2008   15.5708 C   0  0  0  0  0  0  0  0  0  0  0  0
   21.2213   -3.1656   16.0382 O   0  0  0  0  0  0  0  0  0  0  0  0
   20.3330   -1.4701   13.2563 C   0  0  0  0  0  0  0  0  0  0  0  0
   21.8198   -1.2942   13.2611 C   0  0  0  0  0  0  0  0  0  0  0  0
   20.5550   -0.9963   16.3035 N   0  0  0  0  0  0  0  0  0  0  0  0
   20.8614   -0.9926   17.6939 C   0  0  2  0  0  0  0  0  0  0  0  0
   20.2021    0.0918   18.4755 C   0  0  0  0  0  0  0  0  0  0  0  0
   19.2561   -0.1814   19.2760 O   0  0  0  0  0  0  0  0  0  0  0  0
   22.3658   -1.0146   17.9400 C   0  0  0  0  0  0  0  0  0  0  0  0
   20.6125    1.4361   18.3453 N   0  0  0  0  0  0  0  0  0  0  0  0
   20.4431    2.5009   19.2786 C   0  0  2  0  0  0  0  0  0  0  0  0
   19.1813    3.2598   19.0973 C   0  0  0  0  0  0  0  0  0  0  0  0
   19.1251    4.0788   18.1015 O   0  0  0  0  0  0  0  0  0  0  0  0
   21.6488    3.3682   19.5041 C   0  0  0  0  0  0  0  0  0  0  0  0
   22.9297    2.7512   19.1864 C   0  0  0  0  0  0  0  0  0  0  0  0
   23.7159    2.3976   20.0835 O   0  0  0  0  0  0  0  0  0  0  0  0
   23.2988    2.5405   17.8613 O   0  0  0  0  0  0  0  0  0  0  0  0
   18.0500    3.1820   19.8939 N   0  0  0  0  0  0  0  0  0  0  0  0
   16.6736    3.4763   19.5079 C   0  0  2  0  0  0  0  0  0  0  0  0
   15.7558    3.3104   20.6383 C   0  0  0  0  0  0  0  0  0  0  0  0
   16.0903    2.5062   21.5828 O   0  0  0  0  0  0  0  0  0  0  0  0
   16.3122    2.7755   18.2500 C   0  0  2  0  0  0  0  0  0  0  0  0
   15.9927    1.4422   18.4539 O   0  0  0  0  0  0  0  0  0  0  0  0
   17.3941    2.8955   17.1888 C   0  0  0  0  0  0  0  0  0  0  0  0
   14.5415    3.9769   20.7541 N   0  0  0  0  0  0  0  0  0  0  0  0
   13.6284    3.9568   21.8713 C   0  0  2  0  0  0  0  0  0  0  0  0
   12.4451    4.8089   21.5675 C   0  0  0  0  0  0  0  0  0  0  0  0
   12.5482    5.6378   20.6412 O   0  0  0  0  0  0  0  0  0  0  0  0
   14.2880    4.2639   23.1539 C   0  0  2  0  0  0  0  0  0  0  0  0
   14.6199    5.6385   23.1753 O   0  0  0  0  0  0  0  0  0  0  0  0
   15.6430    3.5414   23.1834 C   0  0  0  0  0  0  0  0  0  0  0  0
   11.2603    4.6475   22.3274 N   0  0  0  0  0  0  0  0  0  0  0  0
   10.1912    3.7532   21.8782 C   0  0  2  0  0  0  0  0  0  0  0  0
    9.1422    3.6771   22.9193 C   0  0  0  0  0  0  0  0  0  0  0  0
    9.0867    2.6336   23.5953 O   0  0  0  0  0  0  0  0  0  0  0  0
   10.9010    2.3922   21.7202 C   0  0  2  0  0  0  0  0  0  0  0  0
   11.0717    1.7638   22.9428 O   0  0  0  0  0  0  0  0  0  0  0  0
   12.1544    2.4021   20.9253 C   0  0  0  0  0  0  0  0  0  0  0  0
    8.2303    4.7410   23.1564 N   0  0  0  0  0  0  0  0  0  0  0  0
    7.1198    4.7929   24.0281 C   0  0  2  0  0  0  0  0  0  0  0  0
    6.4542    3.5264   24.3464 C   0  0  0  0  0  0  0  0  0  0  0  0
    6.1687    3.2678   25.7223 O   0  0  0  0  0  0  0  0  0  0  0  0
    6.1185    5.7233   23.3173 C   0  0  0  0  0  0  0  0  0  0  0  0
    6.9284    6.4003   22.2489 C   0  0  0  0  0  0  0  0  0  0  0  0
    8.3490    6.0998   22.5862 C   0  0  0  0  0  0  0  0  0  0  0  0
    6.0971    2.6313   23.5756 O   0  0  0  0  0  0  0  0  0  0  0  0
  2  1  1  1
  2  3  1  0
  2  5  1  0
  3  4  2  0
  3  7  1  0
  5  6  1  0
  7  8  1  0
  8  9  1  0
  8 11  1  6
  9 10  2  0
  9 12  1  0
 12 13  1  0
 13 14  1  0
 13 16  1  6
 14 15  2  0
 14 20  1  0
 16 17  1  0
 17 18  2  0
 17 19  1  0
 21 20  1  1
 21 22  1  0
 21 24  1  0
 22 23  2  0
 22 27  1  0
 24 25  1  0
 24 26  1  6
 28 27  1  6
 28 29  1  0
 28 31  1  0
 29 30  2  0
 29 34  1  0
 31 32  1  0
 31 33  1  6
 35 34  1  1
 35 36  1  0
 35 38  1  0
 36 37  2  0
 36 41  1  0
 38 39  1  0
 38 40  1  1
 41 42  1  0
 41 47  1  0
 42 43  1  6
 42 45  1  0
 43 44  1  0
 43 48  2  0
 45 46  1  0
 46 47  1  0
M  CHG  1   1   1
M  END
$$$$
