
     RDKit          3D

 48 48  0  0  0  0  0  0  0  0999 V2000
    6.6788    4.6822   28.1563 N   0  0  0  0  0  4  0  0  0  0  0  0
    6.1777    3.5065   27.5304 C   0  0  2  0  0  0  0  0  0  0  0  0
    7.1904    2.7176   26.7997 C   0  0  0  0  0  0  0  0  0  0  0  0
    7.0050    1.4687   26.7610 O   0  0  0  0  0  0  0  0  0  0  0  0
    5.0172    3.8029   26.6023 C   0  0  0  0  0  0  0  0  0  0  0  0
    4.1345    4.9083   27.0925 C   0  0  0  0  0  0  0  0  0  0  0  0
    8.3337    3.2234   26.1479 N   0  0  0  0  0  0  0  0  0  0  0  0
    9.2722    2.3422   25.5398 C   0  0  2  0  0  0  0  0  0  0  0  0
   10.3872    3.0190   24.8184 C   0  0  0  0  0  0  0  0  0  0  0  0
   10.9312    4.0548   25.3098 O   0  0  0  0  0  0  0  0  0  0  0  0
    8.5846    1.3116   24.6513 C   0  0  0  0  0  0  0  0  0  0  0  0
   10.8604    2.5264   23.5831 N   0  0  0  0  0  0  0  0  0  0  0  0
   12.2011    2.5146   23.0974 C   0  0  2  0  0  0  0  0  0  0  0  0
   12.3496    1.8746   21.7673 C   0  0  0  0  0  0  0  0  0  0  0  0
   11.6079    0.8473   21.5225 O   0  0  0  0  0  0  0  0  0  0  0  0
   13.2510    2.1057   24.0911 C   0  0  0  0  0  0  0  0  0  0  0  0
   13.5813    3.1061   25.0973 C   0  0  0  0  0  0  0  0  0  0  0  0
   13.2461    4.2962   24.9585 O   0  0  0  0  0  0  0  0  0  0  0  0
   14.2810    2.7446   26.2446 O   0  0  0  0  0  0  0  0  0  0  0  0
   13.2105    2.2666   20.7545 N   0  0  0  0  0  0  0  0  0  0  0  0
   12.8724    2.5387   19.3611 C   0  0  2  0  0  0  0  0  0  0  0  0
   14.0544    2.9426   18.5948 C   0  0  0  0  0  0  0  0  0  0  0  0
   13.9594    3.9623   17.8189 O   0  0  0  0  0  0  0  0  0  0  0  0
   11.6839    3.4232   19.2649 C   0  0  2  0  0  0  0  0  0  0  0  0
   11.9378    4.7102   19.7124 O   0  0  0  0  0  0  0  0  0  0  0  0
   10.4752    2.8497   19.9869 C   0  0  0  0  0  0  0  0  0  0  0  0
   15.2798    2.2896   18.6599 N   0  0  0  0  0  0  0  0  0  0  0  0
   16.5821    2.8266   18.3468 C   0  0  2  0  0  0  0  0  0  0  0  0
   17.5893    1.7293   18.3427 C   0  0  0  0  0  0  0  0  0  0  0  0
   17.3856    0.7504   19.0884 O   0  0  0  0  0  0  0  0  0  0  0  0
   16.9418    3.9815   19.1901 C   0  0  2  0  0  0  0  0  0  0  0  0
   16.8231    3.6056   20.5482 O   0  0  0  0  0  0  0  0  0  0  0  0
   15.8741    5.0687   18.9981 C   0  0  0  0  0  0  0  0  0  0  0  0
   18.7245    1.8326   17.5013 N   0  0  0  0  0  0  0  0  0  0  0  0
   19.7803    0.8182   17.5298 C   0  0  2  0  0  0  0  0  0  0  0  0
   21.0989    1.4819   17.6358 C   0  0  0  0  0  0  0  0  0  0  0  0
   21.1693    2.6686   17.2675 O   0  0  0  0  0  0  0  0  0  0  0  0
   19.6363    0.1082   16.1674 C   0  0  2  0  0  0  0  0  0  0  0  0
   19.9624    0.9519   15.1183 O   0  0  0  0  0  0  0  0  0  0  0  0
   18.3485   -0.5914   15.9329 C   0  0  0  0  0  0  0  0  0  0  0  0
   22.2470    0.8119   18.1384 N   0  0  0  0  0  0  0  0  0  0  0  0
   23.5894    1.2490   18.1903 C   0  0  2  0  0  0  0  0  0  0  0  0
   24.0196    2.2231   17.1832 C   0  0  0  0  0  0  0  0  0  0  0  0
   23.0113    2.7657   16.3286 O   0  0  0  0  0  0  0  0  0  0  0  0
   24.4179   -0.0399   18.0305 C   0  0  0  0  0  0  0  0  0  0  0  0
   23.4330   -1.1502   18.2601 C   0  0  0  0  0  0  0  0  0  0  0  0
   22.2279   -0.4902   18.8382 C   0  0  0  0  0  0  0  0  0  0  0  0
   25.1563    2.6507   16.9644 O   0  0  0  0  0  0  0  0  0  0  0  0
  2  1  1  6
  2  3  1  0
  2  5  1  0
  3  4  2  0
  3  7  1  0
  5  6  1  0
  7  8  1  0
  8  9  1  0
  8 11  1  6
  9 10  2  0
  9 12  1  0
 12 13  1  0
 13 14  1  0
 13 16  1  1
 14 15  2  0
 14 20  1  0
 16 17  1  0
 17 18  2  0
 17 19  1  0
 21 20  1  1
 21 22  1  0
 21 24  1  0
 22 23  2  0
 22 27  1  0
 24 25  1  0
 24 26  1  1
 28 27  1  1
 28 29  1  0
 28 31  1  0
 29 30  2  0
 29 34  1  0
 31 32  1  0
 31 33  1  6
 35 34  1  6
 35 36  1  0
 35 38  1  0
 36 37  2  0
 36 41  1  0
 38 39  1  0
 38 40  1  6
 41 42  1  0
 41 47  1  0
 42 43  1  6
 42 45  1  0
 43 44  1  0
 43 48  2  0
 45 46  1  0
 46 47  1  0
M  CHG  1   1   1
M  END
$$$$
