
     RDKit          3D

 48 48  0  0  0  0  0  0  0  0999 V2000
   11.5982    3.4151   24.0572 N   0  0  0  0  0  4  0  0  0  0  0  0
   11.7330    4.8243   24.2025 C   0  0  2  0  0  0  0  0  0  0  0  0
   10.6102    5.4823   24.9011 C   0  0  0  0  0  0  0  0  0  0  0  0
   10.7601    6.7074   25.1701 O   0  0  0  0  0  0  0  0  0  0  0  0
   11.9634    5.5168   22.8745 C   0  0  0  0  0  0  0  0  0  0  0  0
   12.6016    6.8641   23.0123 C   0  0  0  0  0  0  0  0  0  0  0  0
    9.3986    4.8767   25.2921 N   0  0  0  0  0  0  0  0  0  0  0  0
    8.4754    4.4036   24.3170 C   0  0  2  0  0  0  0  0  0  0  0  0
    9.0415    4.2432   22.9475 C   0  0  0  0  0  0  0  0  0  0  0  0
    8.3411    4.5288   21.9286 O   0  0  0  0  0  0  0  0  0  0  0  0
    7.2014    5.2407   24.2934 C   0  0  0  0  0  0  0  0  0  0  0  0
   10.3592    3.7751   22.7544 N   0  0  0  0  0  0  0  0  0  0  0  0
   11.0805    3.6611   21.5296 C   0  0  2  0  0  0  0  0  0  0  0  0
   12.4141    3.0282   21.6778 C   0  0  0  0  0  0  0  0  0  0  0  0
   12.6319    2.3615   22.7610 O   0  0  0  0  0  0  0  0  0  0  0  0
   11.0797    4.8835   20.6563 C   0  0  0  0  0  0  0  0  0  0  0  0
    9.8096    5.1891   20.0116 C   0  0  0  0  0  0  0  0  0  0  0  0
    9.5774    6.3194   19.5464 O   0  0  0  0  0  0  0  0  0  0  0  0
    8.8251    4.2119   19.8997 O   0  0  0  0  0  0  0  0  0  0  0  0
   13.4583    3.0817   20.7682 N   0  0  0  0  0  0  0  0  0  0  0  0
   14.2334    1.9620   20.2434 C   0  0  2  0  0  0  0  0  0  0  0  0
   15.2031    2.4088   19.2397 C   0  0  0  0  0  0  0  0  0  0  0  0
   14.8925    2.2953   17.9982 O   0  0  0  0  0  0  0  0  0  0  0  0
   13.3465    0.8363   19.8556 C   0  0  2  0  0  0  0  0  0  0  0  0
   12.7633    1.0195   18.6116 O   0  0  0  0  0  0  0  0  0  0  0  0
   12.2748    0.5579   20.8974 C   0  0  0  0  0  0  0  0  0  0  0  0
   16.4430    2.9553   19.5503 N   0  0  0  0  0  0  0  0  0  0  0  0
   17.5122    3.2880   18.6401 C   0  0  2  0  0  0  0  0  0  0  0  0
   18.3033    2.0653   18.3272 C   0  0  0  0  0  0  0  0  0  0  0  0
   18.0207    1.0172   18.9415 O   0  0  0  0  0  0  0  0  0  0  0  0
   18.3177    4.4345   19.0995 C   0  0  2  0  0  0  0  0  0  0  0  0
   18.8331    4.1411   20.3834 O   0  0  0  0  0  0  0  0  0  0  0  0
   17.3743    5.6249   19.3276 C   0  0  0  0  0  0  0  0  0  0  0  0
   19.3308    2.1338   17.3542 N   0  0  0  0  0  0  0  0  0  0  0  0
   20.1916    0.9807   17.0828 C   0  0  2  0  0  0  0  0  0  0  0  0
   21.5974    1.4301   16.9723 C   0  0  0  0  0  0  0  0  0  0  0  0
   21.8368    2.3586   16.1791 O   0  0  0  0  0  0  0  0  0  0  0  0
   19.6788    0.4587   15.7243 C   0  0  2  0  0  0  0  0  0  0  0  0
   19.9193    1.3680   14.7074 O   0  0  0  0  0  0  0  0  0  0  0  0
   18.2787   -0.0334   15.7045 C   0  0  0  0  0  0  0  0  0  0  0  0
   22.6435    0.8428   17.7343 N   0  0  0  0  0  0  0  0  0  0  0  0
   24.0321    1.1001   17.6989 C   0  0  2  0  0  0  0  0  0  0  0  0
   24.5928    1.5964   16.4389 C   0  0  0  0  0  0  0  0  0  0  0  0
   26.0144    1.5632   16.3002 O   0  0  0  0  0  0  0  0  0  0  0  0
   24.6811   -0.2548   18.0399 C   0  0  0  0  0  0  0  0  0  0  0  0
   23.5555   -1.0821   18.5913 C   0  0  0  0  0  0  0  0  0  0  0  0
   22.4474   -0.1169   18.8416 C   0  0  0  0  0  0  0  0  0  0  0  0
   23.9961    2.0493   15.4581 O   0  0  0  0  0  0  0  0  0  0  0  0
  2  1  1  6
  2  3  1  0
  2  5  1  0
  3  4  2  0
  3  7  1  0
  5  6  1  0
  7  8  1  0
  8  9  1  0
  8 11  1  6
  9 10  2  0
  9 12  1  0
 12 13  1  0
 13 14  1  0
 13 16  1  1
 14 15  2  0
 14 20  1  0
 16 17  1  0
 17 18  2  0
 17 19  1  0
 21 20  1  6
 21 22  1  0
 21 24  1  0
 22 23  2  0
 22 27  1  0
 24 25  1  0
 24 26  1  1
 28 27  1  1
 28 29  1  0
 28 31  1  0
 29 30  2  0
 29 34  1  0
 31 32  1  0
 31 33  1  1
 35 34  1  6
 35 36  1  0
 35 38  1  0
 36 37  2  0
 36 41  1  0
 38 39  1  0
 38 40  1  1
 41 42  1  0
 41 47  1  0
 42 43  1  6
 42 45  1  0
 43 44  1  0
 43 48  2  0
 45 46  1  0
 46 47  1  0
M  CHG  1   1   1
M  END
$$$$
