
     RDKit          3D

 48 48  0  0  0  0  0  0  0  0999 V2000
    7.6256    4.2927   25.1262 N   0  0  0  0  0  4  0  0  0  0  0  0
    6.4159    4.6740   24.4808 C   0  0  2  0  0  0  0  0  0  0  0  0
    6.5314    4.8717   23.0216 C   0  0  0  0  0  0  0  0  0  0  0  0
    5.6771    5.6367   22.4918 O   0  0  0  0  0  0  0  0  0  0  0  0
    5.8028    5.9131   25.1010 C   0  0  0  0  0  0  0  0  0  0  0  0
    6.6319    6.4957   26.2031 C   0  0  0  0  0  0  0  0  0  0  0  0
    7.4965    4.2919   22.1730 N   0  0  0  0  0  0  0  0  0  0  0  0
    8.4064    5.1085   21.4435 C   0  0  2  0  0  0  0  0  0  0  0  0
    9.8302    4.6731   21.5138 C   0  0  0  0  0  0  0  0  0  0  0  0
   10.7411    5.3763   20.9790 O   0  0  0  0  0  0  0  0  0  0  0  0
    8.2605    6.5814   21.8093 C   0  0  0  0  0  0  0  0  0  0  0  0
   10.1949    3.4792   22.1727 N   0  0  0  0  0  0  0  0  0  0  0  0
   11.5037    2.9479   22.3680 C   0  0  2  0  0  0  0  0  0  0  0  0
   12.4094    3.1484   21.2102 C   0  0  0  0  0  0  0  0  0  0  0  0
   12.0282    3.9829   20.3027 O   0  0  0  0  0  0  0  0  0  0  0  0
   11.5658    1.5679   22.9585 C   0  0  0  0  0  0  0  0  0  0  0  0
   10.6978    1.3404   24.1060 C   0  0  0  0  0  0  0  0  0  0  0  0
   11.0322    1.6995   25.2494 O   0  0  0  0  0  0  0  0  0  0  0  0
    9.4654    0.7151   23.9422 O   0  0  0  0  0  0  0  0  0  0  0  0
   13.6293    2.5256   20.9994 N   0  0  0  0  0  0  0  0  0  0  0  0
   14.5608    2.7528   19.8991 C   0  0  2  0  0  0  0  0  0  0  0  0
   15.7469    1.9008   20.0202 C   0  0  0  0  0  0  0  0  0  0  0  0
   16.6780    2.2624   20.8283 O   0  0  0  0  0  0  0  0  0  0  0  0
   14.8025    4.2036   19.6974 C   0  0  2  0  0  0  0  0  0  0  0  0
   15.5910    4.7576   20.6937 O   0  0  0  0  0  0  0  0  0  0  0  0
   13.5102    4.9920   19.5572 C   0  0  0  0  0  0  0  0  0  0  0  0
   15.9251    0.7166   19.3142 N   0  0  0  0  0  0  0  0  0  0  0  0
   16.9252    0.4287   18.3145 C   0  0  2  0  0  0  0  0  0  0  0  0
   18.1289    1.2734   18.5514 C   0  0  0  0  0  0  0  0  0  0  0  0
   17.9861    2.3128   19.2260 O   0  0  0  0  0  0  0  0  0  0  0  0
   16.3948    0.4944   16.9402 C   0  0  2  0  0  0  0  0  0  0  0  0
   16.2552    1.8528   16.5726 O   0  0  0  0  0  0  0  0  0  0  0  0
   14.9585   -0.0495   16.9522 C   0  0  0  0  0  0  0  0  0  0  0  0
   19.3761    0.8705   18.0135 N   0  0  0  0  0  0  0  0  0  0  0  0
   20.5754    1.6922   18.1899 C   0  0  2  0  0  0  0  0  0  0  0  0
   21.7302    1.0223   17.5513 C   0  0  0  0  0  0  0  0  0  0  0  0
   21.9574   -0.1561   17.8808 O   0  0  0  0  0  0  0  0  0  0  0  0
   20.7553    1.7448   19.7215 C   0  0  2  0  0  0  0  0  0  0  0  0
   21.8018    2.5780   20.0814 O   0  0  0  0  0  0  0  0  0  0  0  0
   20.8322    0.4331   20.4116 C   0  0  0  0  0  0  0  0  0  0  0  0
   22.5543    1.6775   16.5967 N   0  0  0  0  0  0  0  0  0  0  0  0
   23.6773    1.1865   15.8941 C   0  0  2  0  0  0  0  0  0  0  0  0
   24.4553    0.1193   16.5298 C   0  0  0  0  0  0  0  0  0  0  0  0
   24.0973   -0.2417   17.8651 O   0  0  0  0  0  0  0  0  0  0  0  0
   24.5786    2.4211   15.7026 C   0  0  0  0  0  0  0  0  0  0  0  0
   23.6886    3.5885   16.0199 C   0  0  0  0  0  0  0  0  0  0  0  0
   22.3072    3.0293   16.0518 C   0  0  0  0  0  0  0  0  0  0  0  0
   25.3977   -0.5266   16.0633 O   0  0  0  0  0  0  0  0  0  0  0  0
  2  1  1  1
  2  3  1  0
  2  5  1  0
  3  4  2  0
  3  7  1  0
  5  6  1  0
  7  8  1  0
  8  9  1  0
  8 11  1  1
  9 10  2  0
  9 12  1  0
 12 13  1  0
 13 14  1  0
 13 16  1  6
 14 15  2  0
 14 20  1  0
 16 17  1  0
 17 18  2  0
 17 19  1  0
 21 20  1  1
 21 22  1  0
 21 24  1  0
 22 23  2  0
 22 27  1  0
 24 25  1  0
 24 26  1  1
 28 27  1  1
 28 29  1  0
 28 31  1  0
 29 30  2  0
 29 34  1  0
 31 32  1  0
 31 33  1  1
 35 34  1  1
 35 36  1  0
 35 38  1  0
 36 37  2  0
 36 41  1  0
 38 39  1  0
 38 40  1  6
 41 42  1  0
 41 47  1  0
 42 43  1  1
 42 45  1  0
 43 44  1  0
 43 48  2  0
 45 46  1  0
 46 47  1  0
M  CHG  1   1   1
M  END
$$$$
