
     RDKit          3D

 48 48  0  0  0  0  0  0  0  0999 V2000
    7.1259    5.4461   23.4803 N   0  0  0  0  0  4  0  0  0  0  0  0
    7.7078    4.6986   22.4183 C   0  0  2  0  0  0  0  0  0  0  0  0
    9.0796    4.2185   22.6817 C   0  0  0  0  0  0  0  0  0  0  0  0
    9.3154    3.8164   23.8558 O   0  0  0  0  0  0  0  0  0  0  0  0
    7.6931    5.4597   21.1081 C   0  0  0  0  0  0  0  0  0  0  0  0
    8.4155    6.7694   21.1761 C   0  0  0  0  0  0  0  0  0  0  0  0
   10.1403    4.1678   21.7543 N   0  0  0  0  0  0  0  0  0  0  0  0
   11.3973    3.6074   22.1189 C   0  0  2  0  0  0  0  0  0  0  0  0
   12.3949    3.5400   21.0135 C   0  0  0  0  0  0  0  0  0  0  0  0
   12.0102    3.5367   19.8042 O   0  0  0  0  0  0  0  0  0  0  0  0
   11.2349    2.2529   22.7996 C   0  0  0  0  0  0  0  0  0  0  0  0
   13.7790    3.4804   21.2843 N   0  0  0  0  0  0  0  0  0  0  0  0
   14.8563    3.4442   20.3507 C   0  0  2  0  0  0  0  0  0  0  0  0
   15.3186    2.0730   20.0239 C   0  0  0  0  0  0  0  0  0  0  0  0
   15.5959    1.2938   21.0145 O   0  0  0  0  0  0  0  0  0  0  0  0
   15.9710    4.4192   20.6033 C   0  0  0  0  0  0  0  0  0  0  0  0
   15.5748    5.8200   20.6566 C   0  0  0  0  0  0  0  0  0  0  0  0
   14.6525    6.2021   21.3992 O   0  0  0  0  0  0  0  0  0  0  0  0
   16.2295    6.7659   19.8736 O   0  0  0  0  0  0  0  0  0  0  0  0
   15.4876    1.5395   18.7560 N   0  0  0  0  0  0  0  0  0  0  0  0
   15.9501    0.1980   18.4146 C   0  0  2  0  0  0  0  0  0  0  0  0
   17.4047    0.0846   18.5517 C   0  0  0  0  0  0  0  0  0  0  0  0
   17.9289   -1.0884   18.5425 O   0  0  0  0  0  0  0  0  0  0  0  0
   15.3668   -0.2542   17.1264 C   0  0  2  0  0  0  0  0  0  0  0  0
   15.8085    0.4954   16.0473 O   0  0  0  0  0  0  0  0  0  0  0  0
   13.8470   -0.2792   17.1560 C   0  0  0  0  0  0  0  0  0  0  0  0
   18.2571    1.1744   18.6869 N   0  0  0  0  0  0  0  0  0  0  0  0
   19.6963    1.1598   18.7905 C   0  0  2  0  0  0  0  0  0  0  0  0
   20.1390    2.1895   19.7715 C   0  0  0  0  0  0  0  0  0  0  0  0
   19.4976    3.2580   19.8220 O   0  0  0  0  0  0  0  0  0  0  0  0
   20.3645    1.2402   17.4785 C   0  0  2  0  0  0  0  0  0  0  0  0
   20.0308    2.4748   16.8747 O   0  0  0  0  0  0  0  0  0  0  0  0
   19.7425    0.1814   16.5559 C   0  0  0  0  0  0  0  0  0  0  0  0
   21.2541    1.9212   20.6032 N   0  0  0  0  0  0  0  0  0  0  0  0
   21.7698    2.9356   21.5250 C   0  0  2  0  0  0  0  0  0  0  0  0
   21.1101    4.2317   21.2510 C   0  0  0  0  0  0  0  0  0  0  0  0
   20.9933    4.5695   20.0589 O   0  0  0  0  0  0  0  0  0  0  0  0
   23.2723    3.0062   21.1808 C   0  0  2  0  0  0  0  0  0  0  0  0
   23.9432    3.8864   22.0139 O   0  0  0  0  0  0  0  0  0  0  0  0
   23.6009    3.2397   19.7524 C   0  0  0  0  0  0  0  0  0  0  0  0
   20.6196    5.0678   22.2903 N   0  0  0  0  0  0  0  0  0  0  0  0
   20.1604    6.4022   22.2264 C   0  0  2  0  0  0  0  0  0  0  0  0
   20.7013    7.2499   21.1600 C   0  0  0  0  0  0  0  0  0  0  0  0
   19.7602    7.9108   20.3121 O   0  0  0  0  0  0  0  0  0  0  0  0
   20.5435    7.0045   23.5916 C   0  0  0  0  0  0  0  0  0  0  0  0
   20.8796    5.8155   24.4455 C   0  0  0  0  0  0  0  0  0  0  0  0
   20.3826    4.6345   23.6837 C   0  0  0  0  0  0  0  0  0  0  0  0
   21.8824    7.4787   20.8851 O   0  0  0  0  0  0  0  0  0  0  0  0
  2  1  1  1
  2  3  1  0
  2  5  1  0
  3  4  2  0
  3  7  1  0
  5  6  1  0
  7  8  1  0
  8  9  1  0
  8 11  1  6
  9 10  2  0
  9 12  1  0
 12 13  1  0
 13 14  1  0
 13 16  1  1
 14 15  2  0
 14 20  1  0
 16 17  1  0
 17 18  2  0
 17 19  1  0
 21 20  1  6
 21 22  1  0
 21 24  1  0
 22 23  2  0
 22 27  1  0
 24 25  1  0
 24 26  1  1
 28 27  1  6
 28 29  1  0
 28 31  1  0
 29 30  2  0
 29 34  1  0
 31 32  1  0
 31 33  1  6
 35 34  1  6
 35 36  1  0
 35 38  1  0
 36 37  2  0
 36 41  1  0
 38 39  1  0
 38 40  1  6
 41 42  1  0
 41 47  1  0
 42 43  1  6
 42 45  1  0
 43 44  1  0
 43 48  2  0
 45 46  1  0
 46 47  1  0
M  CHG  1   1   1
M  END
$$$$
