
     RDKit          3D

 48 48  0  0  0  0  0  0  0  0999 V2000
    4.1148    7.6686   25.5087 N   0  0  0  0  0  4  0  0  0  0  0  0
    5.0185    6.6010   25.7714 C   0  0  2  0  0  0  0  0  0  0  0  0
    5.9017    6.2487   24.6411 C   0  0  0  0  0  0  0  0  0  0  0  0
    5.3283    5.8860   23.5755 O   0  0  0  0  0  0  0  0  0  0  0  0
    4.3053    5.3526   26.2498 C   0  0  0  0  0  0  0  0  0  0  0  0
    5.2323    4.2091   26.5227 C   0  0  0  0  0  0  0  0  0  0  0  0
    7.3112    6.2788   24.6404 N   0  0  0  0  0  0  0  0  0  0  0  0
    8.0437    5.9608   23.4616 C   0  0  2  0  0  0  0  0  0  0  0  0
    8.9474    4.7822   23.5871 C   0  0  0  0  0  0  0  0  0  0  0  0
    8.7661    3.9330   24.5125 O   0  0  0  0  0  0  0  0  0  0  0  0
    8.7899    7.1736   22.9168 C   0  0  0  0  0  0  0  0  0  0  0  0
   10.0159    4.5847   22.6861 N   0  0  0  0  0  0  0  0  0  0  0  0
   10.4066    3.3762   22.0378 C   0  0  2  0  0  0  0  0  0  0  0  0
   11.6468    3.5030   21.2335 C   0  0  0  0  0  0  0  0  0  0  0  0
   11.5085    3.7347   19.9715 O   0  0  0  0  0  0  0  0  0  0  0  0
    9.3064    2.6220   21.3466 C   0  0  0  0  0  0  0  0  0  0  0  0
    8.4582    1.8186   22.2167 C   0  0  0  0  0  0  0  0  0  0  0  0
    8.7937    1.5617   23.3870 O   0  0  0  0  0  0  0  0  0  0  0  0
    7.2440    1.3226   21.7518 O   0  0  0  0  0  0  0  0  0  0  0  0
   12.9473    3.3947   21.6999 N   0  0  0  0  0  0  0  0  0  0  0  0
   14.1731    3.7600   20.9970 C   0  0  2  0  0  0  0  0  0  0  0  0
   14.8909    2.5728   20.5249 C   0  0  0  0  0  0  0  0  0  0  0  0
   14.6984    1.4597   21.1371 O   0  0  0  0  0  0  0  0  0  0  0  0
   14.9611    4.7459   21.7787 C   0  0  2  0  0  0  0  0  0  0  0  0
   15.3706    4.2499   23.0065 O   0  0  0  0  0  0  0  0  0  0  0  0
   14.2201    6.0596   21.9686 C   0  0  0  0  0  0  0  0  0  0  0  0
   15.7681    2.5761   19.4466 N   0  0  0  0  0  0  0  0  0  0  0  0
   16.6830    1.5324   19.0518 C   0  0  2  0  0  0  0  0  0  0  0  0
   18.0337    2.1130   18.8131 C   0  0  0  0  0  0  0  0  0  0  0  0
   18.3447    3.1412   19.4472 O   0  0  0  0  0  0  0  0  0  0  0  0
   16.1675    0.7106   17.9412 C   0  0  2  0  0  0  0  0  0  0  0  0
   15.9202    1.5519   16.8316 O   0  0  0  0  0  0  0  0  0  0  0  0
   14.7814    0.1808   18.3375 C   0  0  0  0  0  0  0  0  0  0  0  0
   18.9064    1.4840   17.8912 N   0  0  0  0  0  0  0  0  0  0  0  0
   20.2993    1.9151   17.7554 C   0  0  2  0  0  0  0  0  0  0  0  0
   21.1855    0.7298   17.7666 C   0  0  0  0  0  0  0  0  0  0  0  0
   21.2296    0.0629   18.8164 O   0  0  0  0  0  0  0  0  0  0  0  0
   20.5335    2.7817   19.0104 C   0  0  2  0  0  0  0  0  0  0  0  0
   19.6649    3.8598   19.0522 O   0  0  0  0  0  0  0  0  0  0  0  0
   21.9369    3.1939   19.2620 C   0  0  0  0  0  0  0  0  0  0  0  0
   21.9578    0.3495   16.6358 N   0  0  0  0  0  0  0  0  0  0  0  0
   22.8709   -0.7187   16.4916 C   0  0  2  0  0  0  0  0  0  0  0  0
   23.5480   -1.1934   17.7018 C   0  0  0  0  0  0  0  0  0  0  0  0
   23.4486   -0.3744   18.8683 O   0  0  0  0  0  0  0  0  0  0  0  0
   23.9244   -0.1903   15.4995 C   0  0  0  0  0  0  0  0  0  0  0  0
   23.2931    1.0322   14.8974 C   0  0  0  0  0  0  0  0  0  0  0  0
   21.8584    0.9680   15.2967 C   0  0  0  0  0  0  0  0  0  0  0  0
   24.2070   -2.2250   17.8588 O   0  0  0  0  0  0  0  0  0  0  0  0
  2  1  1  6
  2  3  1  0
  2  5  1  0
  3  4  2  0
  3  7  1  0
  5  6  1  0
  7  8  1  0
  8  9  1  0
  8 11  1  1
  9 10  2  0
  9 12  1  0
 12 13  1  0
 13 14  1  0
 13 16  1  6
 14 15  2  0
 14 20  1  0
 16 17  1  0
 17 18  2  0
 17 19  1  0
 21 20  1  1
 21 22  1  0
 21 24  1  0
 22 23  2  0
 22 27  1  0
 24 25  1  0
 24 26  1  1
 28 27  1  6
 28 29  1  0
 28 31  1  0
 29 30  2  0
 29 34  1  0
 31 32  1  0
 31 33  1  1
 35 34  1  1
 35 36  1  0
 35 38  1  0
 36 37  2  0
 36 41  1  0
 38 39  1  0
 38 40  1  6
 41 42  1  0
 41 47  1  0
 42 43  1  1
 42 45  1  0
 43 44  1  0
 43 48  2  0
 45 46  1  0
 46 47  1  0
M  CHG  1   1   1
M  END
$$$$
