
     RDKit          3D

 48 48  0  0  0  0  0  0  0  0999 V2000
    5.5418    4.9010   25.2977 N   0  0  0  0  0  4  0  0  0  0  0  0
    6.6756    5.5799   24.7697 C   0  0  2  0  0  0  0  0  0  0  0  0
    7.3844    4.8537   23.6964 C   0  0  0  0  0  0  0  0  0  0  0  0
    7.2989    3.5937   23.7232 O   0  0  0  0  0  0  0  0  0  0  0  0
    7.6686    5.9599   25.8493 C   0  0  0  0  0  0  0  0  0  0  0  0
    7.1745    7.0474   26.7520 C   0  0  0  0  0  0  0  0  0  0  0  0
    8.1403    5.4298   22.6551 N   0  0  0  0  0  0  0  0  0  0  0  0
    8.7121    4.6156   21.6367 C   0  0  2  0  0  0  0  0  0  0  0  0
   10.1412    4.2533   21.8561 C   0  0  0  0  0  0  0  0  0  0  0  0
   10.9931    5.1515   22.1350 O   0  0  0  0  0  0  0  0  0  0  0  0
    8.5006    5.2143   20.2506 C   0  0  0  0  0  0  0  0  0  0  0  0
   10.5756    2.9136   21.7608 N   0  0  0  0  0  0  0  0  0  0  0  0
   11.8919    2.4008   21.9556 C   0  0  2  0  0  0  0  0  0  0  0  0
   12.7872    2.5925   20.7882 C   0  0  0  0  0  0  0  0  0  0  0  0
   12.3147    2.2844   19.6275 O   0  0  0  0  0  0  0  0  0  0  0  0
   11.9741    1.0316   22.5683 C   0  0  0  0  0  0  0  0  0  0  0  0
   11.3714    0.9012   23.8881 C   0  0  0  0  0  0  0  0  0  0  0  0
   10.2659    0.3512   24.0412 O   0  0  0  0  0  0  0  0  0  0  0  0
   12.0291    1.3905   25.0126 O   0  0  0  0  0  0  0  0  0  0  0  0
   14.0883    3.0686   20.8158 N   0  0  0  0  0  0  0  0  0  0  0  0
   15.0627    3.0454   19.7294 C   0  0  2  0  0  0  0  0  0  0  0  0
   15.5830    1.6933   19.5089 C   0  0  0  0  0  0  0  0  0  0  0  0
   15.3420    0.7947   20.3949 O   0  0  0  0  0  0  0  0  0  0  0  0
   16.0677    4.1258   19.8928 C   0  0  2  0  0  0  0  0  0  0  0  0
   16.9663    3.8695   20.9165 O   0  0  0  0  0  0  0  0  0  0  0  0
   15.4252    5.4890   20.0928 C   0  0  0  0  0  0  0  0  0  0  0  0
   16.3211    1.3204   18.3915 N   0  0  0  0  0  0  0  0  0  0  0  0
   16.9267    0.0383   18.1233 C   0  0  2  0  0  0  0  0  0  0  0  0
   18.3602    0.2258   17.7648 C   0  0  0  0  0  0  0  0  0  0  0  0
   19.0361   -0.7933   17.5192 O   0  0  0  0  0  0  0  0  0  0  0  0
   16.1566   -0.7665   17.1571 C   0  0  2  0  0  0  0  0  0  0  0  0
   16.3099   -0.1993   15.8707 O   0  0  0  0  0  0  0  0  0  0  0  0
   14.6631   -0.6001   17.4743 C   0  0  0  0  0  0  0  0  0  0  0  0
   18.8966    1.5360   17.7120 N   0  0  0  0  0  0  0  0  0  0  0  0
   20.3190    1.7594   17.4445 C   0  0  2  0  0  0  0  0  0  0  0  0
   20.7844    2.9400   18.2061 C   0  0  0  0  0  0  0  0  0  0  0  0
   19.9313    3.7944   18.5076 O   0  0  0  0  0  0  0  0  0  0  0  0
   20.3620    2.0386   15.9276 C   0  0  2  0  0  0  0  0  0  0  0  0
   19.6585    3.1868   15.6027 O   0  0  0  0  0  0  0  0  0  0  0  0
   19.9973    0.9006   15.0474 C   0  0  0  0  0  0  0  0  0  0  0  0
   22.1423    3.1075   18.5905 N   0  0  0  0  0  0  0  0  0  0  0  0
   22.7489    4.1670   19.3012 C   0  0  2  0  0  0  0  0  0  0  0  0
   22.1244    5.4893   19.2010 C   0  0  0  0  0  0  0  0  0  0  0  0
   21.8448    6.1725   20.4242 O   0  0  0  0  0  0  0  0  0  0  0  0
   24.1784    4.2407   18.7316 C   0  0  0  0  0  0  0  0  0  0  0  0
   24.3502    2.9516   17.9804 C   0  0  0  0  0  0  0  0  0  0  0  0
   23.2050    2.0968   18.4045 C   0  0  0  0  0  0  0  0  0  0  0  0
   21.7989    6.1101   18.1853 O   0  0  0  0  0  0  0  0  0  0  0  0
  2  1  1  1
  2  3  1  0
  2  5  1  0
  3  4  2  0
  3  7  1  0
  5  6  1  0
  7  8  1  0
  8  9  1  0
  8 11  1  6
  9 10  2  0
  9 12  1  0
 12 13  1  0
 13 14  1  0
 13 16  1  6
 14 15  2  0
 14 20  1  0
 16 17  1  0
 17 18  2  0
 17 19  1  0
 21 20  1  1
 21 22  1  0
 21 24  1  0
 22 23  2  0
 22 27  1  0
 24 25  1  0
 24 26  1  1
 28 27  1  6
 28 29  1  0
 28 31  1  0
 29 30  2  0
 29 34  1  0
 31 32  1  0
 31 33  1  1
 35 34  1  1
 35 36  1  0
 35 38  1  0
 36 37  2  0
 36 41  1  0
 38 39  1  0
 38 40  1  6
 41 42  1  0
 41 47  1  0
 42 43  1  6
 42 45  1  0
 43 44  1  0
 43 48  2  0
 45 46  1  0
 46 47  1  0
M  CHG  1   1   1
M  END
$$$$
