
     RDKit          3D

 67 68  0  0  0  0  0  0  0  0999 V2000
  167.8324   29.4652  204.8615 C   0  0  1  0  0  0  0  0  0  0  0  0
  167.4204   30.8067  205.4924 C   0  0  1  0  0  0  0  0  0  0  0  0
  166.1249   30.5931  206.3035 C   0  0  1  0  0  0  0  0  0  0  0  0
  166.0429   29.1976  206.9413 C   0  0  2  0  0  0  0  0  0  0  0  0
  167.4510   28.5766  207.0823 C   0  0  1  0  0  0  0  0  0  0  0  0
  169.0623   29.5838  203.9577 C   0  0  0  0  0  0  0  0  0  0  0  0
  157.9916   20.5253  217.3155 C   0  0  0  0  0  0  0  0  0  0  0  0
  158.8320   20.6810  216.0589 C   0  0  0  0  0  0  0  0  0  0  0  0
  159.2963   19.3281  215.5182 C   0  0  0  0  0  0  0  0  0  0  0  0
  160.1297   19.4983  214.2480 C   0  0  0  0  0  0  0  0  0  0  0  0
  161.1978   18.4096  214.1235 C   0  0  0  0  0  0  0  0  0  0  0  0
  161.4218   18.0255  212.6589 C   0  0  0  0  0  0  0  0  0  0  0  0
  162.5424   16.9936  212.5116 C   0  0  0  0  0  0  0  0  0  0  0  0
  163.8981   17.5181  212.9953 C   0  0  0  0  0  0  0  0  0  0  0  0
  164.8446   18.0051  211.8959 C   0  0  0  0  0  0  0  0  0  0  0  0
  165.6282   19.2624  212.2904 C   0  0  0  0  0  0  0  0  0  0  0  0
  167.0984   19.1444  211.8763 C   0  0  0  0  0  0  0  0  0  0  0  0
  167.8403   20.4832  211.8433 C   0  0  0  0  0  0  0  0  0  0  0  0
  167.8478   21.2131  210.4985 C   0  0  0  0  0  0  0  0  0  0  0  0
  168.8408   22.3768  210.3969 C   0  0  0  0  0  0  0  0  0  0  0  0
  168.1237   23.7388  210.4644 C   0  0  1  0  0  0  0  0  0  0  0  0
  167.7039   23.9763  211.8072 O   0  0  0  0  0  0  0  0  0  0  0  0
  168.9995   24.9057  209.9439 C   0  0  1  0  0  0  0  0  0  0  0  0
  170.3873   24.5141  209.9253 O   0  0  0  0  0  0  0  0  0  0  0  0
  168.6090   25.3924  208.5195 C   0  0  2  0  0  0  0  0  0  0  0  0
  168.4746   26.9234  208.4315 C   0  0  0  0  0  0  0  0  0  0  0  0
  167.3263   27.2649  207.6468 O   0  0  0  0  0  0  0  0  0  0  0  0
  165.2208   28.3649  206.0997 O   0  0  0  0  0  0  0  0  0  0  0  0
  166.0170   31.6109  207.3081 O   0  0  0  0  0  0  0  0  0  0  0  0
  168.1575   28.4608  205.8452 O   0  0  0  0  0  0  0  0  0  0  0  0
  168.9575   30.7552  203.1485 O   0  0  0  0  0  0  0  0  0  0  0  0
  168.4348   31.2646  206.4119 O   0  0  0  0  0  0  0  0  0  0  0  0
  168.3146   32.6447  206.7504 C   0  0  0  0  0  0  0  0  0  0  0  0
  167.9329   33.3913  205.5019 C   0  0  0  0  0  0  0  0  0  0  0  0
  166.5909   33.5041  205.1167 C   0  0  0  0  0  0  0  0  0  0  0  0
  166.2412   34.2097  203.9626 C   0  0  0  0  0  0  0  0  0  0  0  0
  167.2300   34.8132  203.1875 C   0  0  0  0  0  0  0  0  0  0  0  0
  168.5676   34.7179  203.5666 C   0  0  0  0  0  0  0  0  0  0  0  0
  168.9175   34.0150  204.7202 C   0  0  0  0  0  0  0  0  0  0  0  0
  167.3465   24.7747  208.0901 N   0  0  0  0  0  0  0  0  0  0  0  0
  166.6034   25.2806  207.0499 C   0  0  0  0  0  0  0  0  0  0  0  0
  167.0573   26.0335  206.1982 O   0  0  0  0  0  0  0  0  0  0  0  0
  165.1319   24.9175  207.1044 C   0  0  0  0  0  0  0  0  0  0  0  0
  164.5407   24.5166  205.7536 C   0  0  0  0  0  0  0  0  0  0  0  0
  163.5927   25.5882  205.2043 C   0  0  0  0  0  0  0  0  0  0  0  0
  163.5536   25.5954  203.6716 C   0  0  0  0  0  0  0  0  0  0  0  0
  162.4870   26.5532  203.1369 C   0  0  0  0  0  0  0  0  0  0  0  0
  162.9435   27.3552  201.9121 C   0  0  0  0  0  0  0  0  0  0  0  0
  162.0208   28.5227  201.5553 C   0  0  0  0  0  0  0  0  0  0  0  0
  161.7189   28.5607  200.0553 C   0  0  0  0  0  0  0  0  0  0  0  0
  160.4129   27.8301  199.7387 C   0  0  0  0  0  0  0  0  0  0  0  0
  159.8616   28.2301  198.3673 C   0  0  0  0  0  0  0  0  0  0  0  0
  160.8512   29.0860  197.5695 C   0  0  0  0  0  0  0  0  0  0  0  0
  161.5299   28.3226  196.4277 C   0  0  0  0  0  0  0  0  0  0  0  0
  161.7241   29.1721  195.1638 C   0  0  0  0  0  0  0  0  0  0  0  0
  161.9718   30.6652  195.4147 C   0  0  0  0  0  0  0  0  0  0  0  0
  161.1344   31.5800  194.5163 C   0  0  0  0  0  0  0  0  0  0  0  0
  161.0793   33.0068  195.0681 C   0  0  0  0  0  0  0  0  0  0  0  0
  160.7050   34.0608  194.0200 C   0  0  0  0  0  0  0  0  0  0  0  0
  161.8201   34.4838  193.0568 C   0  0  0  0  0  0  0  0  0  0  0  0
  162.5090   35.7934  193.4463 C   0  0  0  0  0  0  0  0  0  0  0  0
  161.7680   37.0397  192.9441 C   0  0  0  0  0  0  0  0  0  0  0  0
  162.4016   38.3557  193.4047 C   0  0  0  0  0  0  0  0  0  0  0  0
  163.1199   39.0612  192.2517 C   0  0  0  0  0  0  0  0  0  0  0  0
  164.1390   38.1677  191.5375 C   0  0  0  0  0  0  0  0  0  0  0  0
  164.7186   38.7931  190.2677 C   0  0  0  0  0  0  0  0  0  0  0  0
  165.6641   37.8377  189.5560 C   0  0  0  0  0  0  0  0  0  0  0  0
  1  2  1  0
  1  6  1  6
 30  1  1  0
  3  2  1  0
  2 32  1  1
  4  3  1  0
  3 29  1  1
  5  4  1  0
  4 28  1  6
  5 27  1  6
  5 30  1  0
  6 31  1  0
  8  7  1  0
  9  8  1  0
 10  9  1  0
 11 10  1  0
 12 11  1  0
 13 12  1  0
 14 13  1  0
 15 14  1  0
 16 15  1  0
 17 16  1  0
 18 17  1  0
 19 18  1  0
 20 19  1  0
 21 20  1  0
 21 22  1  1
 23 21  1  0
 23 24  1  6
 25 23  1  0
 25 26  1  1
 25 40  1  0
 26 27  1  0
 32 33  1  0
 33 34  1  0
 34 35  2  0
 34 39  1  0
 35 36  1  0
 36 37  2  0
 37 38  1  0
 38 39  2  0
 40 41  1  0
 41 42  2  0
 41 43  1  0
 43 44  1  0
 44 45  1  0
 45 46  1  0
 46 47  1  0
 47 48  1  0
 48 49  1  0
 49 50  1  0
 50 51  1  0
 51 52  1  0
 52 53  1  0
 53 54  1  0
 54 55  1  0
 55 56  1  0
 56 57  1  0
 57 58  1  0
 58 59  1  0
 59 60  1  0
 60 61  1  0
 61 62  1  0
 62 63  1  0
 63 64  1  0
 64 65  1  0
 65 66  1  0
 66 67  1  0
M  END
$$$$
