
     RDKit          3D

 67 68  0  0  0  0  0  0  0  0999 V2000
  172.6274   26.8214  210.0699 C   0  0  1  0  0  0  0  0  0  0  0  0
  174.0471   27.3652  209.8328 C   0  0  1  0  0  0  0  0  0  0  0  0
  174.1490   27.8590  208.3742 C   0  0  1  0  0  0  0  0  0  0  0  0
  172.8275   28.4385  207.8463 C   0  0  2  0  0  0  0  0  0  0  0  0
  171.9194   28.8836  209.0148 C   0  0  1  0  0  0  0  0  0  0  0  0
  172.4440   26.2210  211.4662 C   0  0  0  0  0  0  0  0  0  0  0  0
  163.0346   28.5423  192.2157 C   0  0  0  0  0  0  0  0  0  0  0  0
  161.7225   28.7109  192.9638 C   0  0  0  0  0  0  0  0  0  0  0  0
  161.8322   28.2328  194.4122 C   0  0  0  0  0  0  0  0  0  0  0  0
  162.4381   29.3152  195.3058 C   0  0  0  0  0  0  0  0  0  0  0  0
  162.5250   28.8598  196.7641 C   0  0  0  0  0  0  0  0  0  0  0  0
  163.0534   29.9832  197.6593 C   0  0  0  0  0  0  0  0  0  0  0  0
  163.0919   29.5615  199.1301 C   0  0  0  0  0  0  0  0  0  0  0  0
  163.5998   30.6743  200.0524 C   0  0  0  0  0  0  0  0  0  0  0  0
  163.1353   30.5849  201.5077 C   0  0  0  0  0  0  0  0  0  0  0  0
  164.2648   30.2199  202.4781 C   0  0  0  0  0  0  0  0  0  0  0  0
  163.7560   30.1842  203.9227 C   0  0  0  0  0  0  0  0  0  0  0  0
  164.8637   30.0000  204.9633 C   0  0  0  0  0  0  0  0  0  0  0  0
  164.5614   30.5311  206.3661 C   0  0  0  0  0  0  0  0  0  0  0  0
  165.7129   30.4041  207.3705 C   0  0  0  0  0  0  0  0  0  0  0  0
  167.0835   30.4750  206.6705 C   0  0  1  0  0  0  0  0  0  0  0  0
  167.0867   31.5794  205.7671 O   0  0  0  0  0  0  0  0  0  0  0  0
  168.2640   30.5733  207.6686 C   0  0  1  0  0  0  0  0  0  0  0  0
  168.2361   31.8462  208.3457 O   0  0  0  0  0  0  0  0  0  0  0  0
  168.2696   29.4479  208.7418 C   0  0  2  0  0  0  0  0  0  0  0  0
  169.6310   29.3062  209.4462 C   0  0  0  0  0  0  0  0  0  0  0  0
  170.6864   29.3835  208.4812 O   0  0  0  0  0  0  0  0  0  0  0  0
  172.1661   27.4192  207.0709 O   0  0  0  0  0  0  0  0  0  0  0  0
  175.1993   28.8299  208.2708 O   0  0  0  0  0  0  0  0  0  0  0  0
  171.6104   27.8363  209.9371 O   0  0  0  0  0  0  0  0  0  0  0  0
  171.3664   26.8746  212.1367 O   0  0  0  0  0  0  0  0  0  0  0  0
  174.3037   28.4975  210.6907 O   0  0  0  0  0  0  0  0  0  0  0  0
  175.6119   28.4962  211.2584 C   0  0  0  0  0  0  0  0  0  0  0  0
  175.8332   27.1529  211.8972 C   0  0  0  0  0  0  0  0  0  0  0  0
  176.5322   26.1446  211.2213 C   0  0  0  0  0  0  0  0  0  0  0  0
  176.7457   24.9027  211.8247 C   0  0  0  0  0  0  0  0  0  0  0  0
  176.2669   24.6607  213.1112 C   0  0  0  0  0  0  0  0  0  0  0  0
  175.5801   25.6597  213.7984 C   0  0  0  0  0  0  0  0  0  0  0  0
  175.3681   26.9010  213.1971 C   0  0  0  0  0  0  0  0  0  0  0  0
  167.9044   28.1578  208.1401 N   0  0  0  0  0  0  0  0  0  0  0  0
  168.2774   26.9593  208.7010 C   0  0  0  0  0  0  0  0  0  0  0  0
  168.5009   26.8125  209.8955 O   0  0  0  0  0  0  0  0  0  0  0  0
  168.5016   25.8466  207.6953 C   0  0  0  0  0  0  0  0  0  0  0  0
  167.4092   25.7409  206.6322 C   0  0  0  0  0  0  0  0  0  0  0  0
  166.1448   25.0677  207.1774 C   0  0  0  0  0  0  0  0  0  0  0  0
  165.7989   23.7831  206.4154 C   0  0  0  0  0  0  0  0  0  0  0  0
  164.2868   23.5656  206.3292 C   0  0  0  0  0  0  0  0  0  0  0  0
  163.8605   22.1174  206.5990 C   0  0  0  0  0  0  0  0  0  0  0  0
  162.3833   21.9634  206.9671 C   0  0  0  0  0  0  0  0  0  0  0  0
  161.9981   20.4919  207.1368 C   0  0  0  0  0  0  0  0  0  0  0  0
  160.6133   20.3558  207.7719 C   0  0  0  0  0  0  0  0  0  0  0  0
  160.7072   20.0904  209.2770 C   0  0  0  0  0  0  0  0  0  0  0  0
  159.3299   20.0503  209.9478 C   0  0  0  0  0  0  0  0  0  0  0  0
  159.0077   21.3170  210.7470 C   0  0  0  0  0  0  0  0  0  0  0  0
  157.5706   21.8148  210.5378 C   0  0  0  0  0  0  0  0  0  0  0  0
  157.4182   22.9566  209.5247 C   0  0  0  0  0  0  0  0  0  0  0  0
  157.4564   24.3471  210.1653 C   0  0  0  0  0  0  0  0  0  0  0  0
  157.4136   25.4516  209.1062 C   0  0  0  0  0  0  0  0  0  0  0  0
  158.5222   25.3420  208.0534 C   0  0  0  0  0  0  0  0  0  0  0  0
  158.3702   26.2323  206.8148 C   0  0  0  0  0  0  0  0  0  0  0  0
  159.4767   26.0394  205.7758 C   0  0  0  0  0  0  0  0  0  0  0  0
  160.0532   27.3619  205.2527 C   0  0  0  0  0  0  0  0  0  0  0  0
  161.0548   27.1830  204.1081 C   0  0  0  0  0  0  0  0  0  0  0  0
  160.8836   28.2694  203.0437 C   0  0  0  0  0  0  0  0  0  0  0  0
  160.9524   27.7290  201.6118 C   0  0  0  0  0  0  0  0  0  0  0  0
  160.3470   28.6723  200.5710 C   0  0  0  0  0  0  0  0  0  0  0  0
  160.5052   28.1240  199.1613 C   0  0  0  0  0  0  0  0  0  0  0  0
  1  2  1  0
  1  6  1  1
 30  1  1  0
  3  2  1  0
  2 32  1  1
  4  3  1  0
  3 29  1  1
  5  4  1  0
  4 28  1  1
  5 27  1  6
  5 30  1  0
  6 31  1  0
  8  7  1  0
  9  8  1  0
 10  9  1  0
 11 10  1  0
 12 11  1  0
 13 12  1  0
 14 13  1  0
 15 14  1  0
 16 15  1  0
 17 16  1  0
 18 17  1  0
 19 18  1  0
 20 19  1  0
 21 20  1  0
 21 22  1  6
 23 21  1  0
 23 24  1  1
 25 23  1  0
 25 26  1  6
 25 40  1  0
 26 27  1  0
 32 33  1  0
 33 34  1  0
 34 35  2  0
 34 39  1  0
 35 36  1  0
 36 37  2  0
 37 38  1  0
 38 39  2  0
 40 41  1  0
 41 42  2  0
 41 43  1  0
 43 44  1  0
 44 45  1  0
 45 46  1  0
 46 47  1  0
 47 48  1  0
 48 49  1  0
 49 50  1  0
 50 51  1  0
 51 52  1  0
 52 53  1  0
 53 54  1  0
 54 55  1  0
 55 56  1  0
 56 57  1  0
 57 58  1  0
 58 59  1  0
 59 60  1  0
 60 61  1  0
 61 62  1  0
 62 63  1  0
 63 64  1  0
 64 65  1  0
 65 66  1  0
 66 67  1  0
M  END
$$$$
