
     RDKit          3D

 67 68  0  0  0  0  0  0  0  0999 V2000
  169.0741   36.2737  206.1958 C   0  0  1  0  0  0  0  0  0  0  0  0
  169.4879   37.0635  207.4498 C   0  0  1  0  0  0  0  0  0  0  0  0
  168.8244   36.4143  208.6828 C   0  0  1  0  0  0  0  0  0  0  0  0
  168.6731   34.8913  208.5469 C   0  0  2  0  0  0  0  0  0  0  0  0
  169.6757   34.3317  207.5126 C   0  0  1  0  0  0  0  0  0  0  0  0
  169.6078   36.8896  204.8999 C   0  0  0  0  0  0  0  0  0  0  0  0
  158.0997   32.5127  196.3135 C   0  0  0  0  0  0  0  0  0  0  0  0
  158.7338   32.3462  197.6845 C   0  0  0  0  0  0  0  0  0  0  0  0
  159.1470   30.8969  197.9438 C   0  0  0  0  0  0  0  0  0  0  0  0
  159.8536   30.7578  199.2924 C   0  0  0  0  0  0  0  0  0  0  0  0
  160.3260   29.3230  199.5366 C   0  0  0  0  0  0  0  0  0  0  0  0
  161.0538   29.2056  200.8780 C   0  0  0  0  0  0  0  0  0  0  0  0
  162.1992   28.1927  200.8113 C   0  0  0  0  0  0  0  0  0  0  0  0
  163.5001   28.7286  201.4174 C   0  0  0  0  0  0  0  0  0  0  0  0
  164.6954   27.7752  201.3558 C   0  0  0  0  0  0  0  0  0  0  0  0
  165.9247   28.3029  202.1049 C   0  0  0  0  0  0  0  0  0  0  0  0
  166.0902   27.5951  203.4535 C   0  0  0  0  0  0  0  0  0  0  0  0
  166.9038   28.3945  204.4748 C   0  0  0  0  0  0  0  0  0  0  0  0
  168.2698   27.8140  204.8467 C   0  0  0  0  0  0  0  0  0  0  0  0
  168.5986   27.8358  206.3441 C   0  0  0  0  0  0  0  0  0  0  0  0
  169.6075   28.9494  206.6847 C   0  0  1  0  0  0  0  0  0  0  0  0
  170.9300   28.4596  206.4683 O   0  0  0  0  0  0  0  0  0  0  0  0
  169.3609   30.2504  205.8809 C   0  0  1  0  0  0  0  0  0  0  0  0
  169.0990   29.9368  204.4979 O   0  0  0  0  0  0  0  0  0  0  0  0
  168.1788   31.1038  206.4217 C   0  0  2  0  0  0  0  0  0  0  0  0
  168.4813   32.6132  206.4075 C   0  0  0  0  0  0  0  0  0  0  0  0
  169.4772   32.9173  207.3906 O   0  0  0  0  0  0  0  0  0  0  0  0
  167.3238   34.6082  208.1262 O   0  0  0  0  0  0  0  0  0  0  0  0
  169.5784   36.7406  209.8582 O   0  0  0  0  0  0  0  0  0  0  0  0
  169.5470   34.9106  206.2120 O   0  0  0  0  0  0  0  0  0  0  0  0
  169.1404   38.2327  204.7737 O   0  0  0  0  0  0  0  0  0  0  0  0
  170.9170   36.9935  207.6416 O   0  0  0  0  0  0  0  0  0  0  0  0
  171.6093   38.1554  207.1895 C   0  0  0  0  0  0  0  0  0  0  0  0
  172.1562   38.8626  208.3988 C   0  0  0  0  0  0  0  0  0  0  0  0
  173.3950   39.5146  208.3482 C   0  0  0  0  0  0  0  0  0  0  0  0
  173.8923   40.1808  209.4711 C   0  0  0  0  0  0  0  0  0  0  0  0
  173.1524   40.2053  210.6521 C   0  0  0  0  0  0  0  0  0  0  0  0
  171.9134   39.5703  210.7115 C   0  0  0  0  0  0  0  0  0  0  0  0
  171.4152   38.9064  209.5898 C   0  0  0  0  0  0  0  0  0  0  0  0
  167.8312   30.6973  207.7905 N   0  0  0  0  0  0  0  0  0  0  0  0
  166.5380   30.4143  208.1615 C   0  0  0  0  0  0  0  0  0  0  0  0
  165.5600   30.7239  207.4937 O   0  0  0  0  0  0  0  0  0  0  0  0
  166.4106   29.7799  209.5331 C   0  0  0  0  0  0  0  0  0  0  0  0
  164.9674   29.5584  209.9834 C   0  0  0  0  0  0  0  0  0  0  0  0
  164.8680   28.4906  211.0782 C   0  0  0  0  0  0  0  0  0  0  0  0
  164.9653   27.0695  210.5110 C   0  0  0  0  0  0  0  0  0  0  0  0
  163.5903   26.5164  210.1304 C   0  0  0  0  0  0  0  0  0  0  0  0
  163.4444   25.0113  210.3851 C   0  0  0  0  0  0  0  0  0  0  0  0
  162.7064   24.6695  211.6812 C   0  0  0  0  0  0  0  0  0  0  0  0
  161.1908   24.8053  211.5161 C   0  0  0  0  0  0  0  0  0  0  0  0
  160.4526   23.7255  212.3090 C   0  0  0  0  0  0  0  0  0  0  0  0
  159.2277   23.2074  211.5501 C   0  0  0  0  0  0  0  0  0  0  0  0
  158.5178   22.0728  212.2966 C   0  0  0  0  0  0  0  0  0  0  0  0
  158.3050   20.8220  211.4380 C   0  0  0  0  0  0  0  0  0  0  0  0
  158.9878   19.5721  212.0108 C   0  0  0  0  0  0  0  0  0  0  0  0
  159.0414   18.3672  211.0625 C   0  0  0  0  0  0  0  0  0  0  0  0
  159.8535   17.1930  211.6166 C   0  0  0  0  0  0  0  0  0  0  0  0
  160.8123   16.6307  210.5640 C   0  0  0  0  0  0  0  0  0  0  0  0
  162.0312   15.9154  211.1574 C   0  0  0  0  0  0  0  0  0  0  0  0
  163.0229   15.3197  210.1515 C   0  0  0  0  0  0  0  0  0  0  0  0
  162.3670   14.8035  208.8691 C   0  0  0  0  0  0  0  0  0  0  0  0
  163.0406   13.5433  208.3097 C   0  0  0  0  0  0  0  0  0  0  0  0
  162.3840   13.0144  207.0313 C   0  0  0  0  0  0  0  0  0  0  0  0
  163.3387   12.1095  206.2485 C   0  0  0  0  0  0  0  0  0  0  0  0
  162.6389   11.2916  205.1586 C   0  0  0  0  0  0  0  0  0  0  0  0
  162.5588   12.0091  203.8102 C   0  0  0  0  0  0  0  0  0  0  0  0
  161.7396   11.2164  202.8034 C   0  0  0  0  0  0  0  0  0  0  0  0
  1  2  1  0
  1  6  1  6
 30  1  1  0
  3  2  1  0
  2 32  1  1
  4  3  1  0
  3 29  1  1
  5  4  1  0
  4 28  1  6
  5 27  1  6
  5 30  1  0
  6 31  1  0
  8  7  1  0
  9  8  1  0
 10  9  1  0
 11 10  1  0
 12 11  1  0
 13 12  1  0
 14 13  1  0
 15 14  1  0
 16 15  1  0
 17 16  1  0
 18 17  1  0
 19 18  1  0
 20 19  1  0
 21 20  1  0
 21 22  1  6
 23 21  1  0
 23 24  1  6
 25 23  1  0
 25 26  1  1
 25 40  1  0
 26 27  1  0
 32 33  1  0
 33 34  1  0
 34 35  2  0
 34 39  1  0
 35 36  1  0
 36 37  2  0
 37 38  1  0
 38 39  2  0
 40 41  1  0
 41 42  2  0
 41 43  1  0
 43 44  1  0
 44 45  1  0
 45 46  1  0
 46 47  1  0
 47 48  1  0
 48 49  1  0
 49 50  1  0
 50 51  1  0
 51 52  1  0
 52 53  1  0
 53 54  1  0
 54 55  1  0
 55 56  1  0
 56 57  1  0
 57 58  1  0
 58 59  1  0
 59 60  1  0
 60 61  1  0
 61 62  1  0
 62 63  1  0
 63 64  1  0
 64 65  1  0
 65 66  1  0
 66 67  1  0
M  END
$$$$
