
     RDKit          3D

 67 68  0  0  0  0  0  0  0  0999 V2000
  167.3273   27.1045  204.2988 C   0  0  1  0  0  0  0  0  0  0  0  0
  167.6967   27.1600  202.8061 C   0  0  1  0  0  0  0  0  0  0  0  0
  168.3291   28.5354  202.5053 C   0  0  1  0  0  0  0  0  0  0  0  0
  169.1365   29.0927  203.6878 C   0  0  2  0  0  0  0  0  0  0  0  0
  169.5696   27.9550  204.6397 C   0  0  1  0  0  0  0  0  0  0  0  0
  166.6078   25.8103  204.6874 C   0  0  0  0  0  0  0  0  0  0  0  0
  161.5655   21.0880  209.9100 C   0  0  0  0  0  0  0  0  0  0  0  0
  162.1878   20.8097  211.2684 C   0  0  0  0  0  0  0  0  0  0  0  0
  163.7153   20.8487  211.2090 C   0  0  0  0  0  0  0  0  0  0  0  0
  164.2499   22.2096  211.6552 C   0  0  0  0  0  0  0  0  0  0  0  0
  165.7560   22.3314  211.4131 C   0  0  0  0  0  0  0  0  0  0  0  0
  166.2898   23.6669  211.9366 C   0  0  0  0  0  0  0  0  0  0  0  0
  167.7670   23.8602  211.5861 C   0  0  0  0  0  0  0  0  0  0  0  0
  168.3443   25.1623  212.1502 C   0  0  0  0  0  0  0  0  0  0  0  0
  168.5973   25.1696  213.6594 C   0  0  0  0  0  0  0  0  0  0  0  0
  169.7092   26.1386  214.0781 C   0  0  0  0  0  0  0  0  0  0  0  0
  169.2019   27.5842  214.0861 C   0  0  0  0  0  0  0  0  0  0  0  0
  170.2467   28.6080  213.6344 C   0  0  0  0  0  0  0  0  0  0  0  0
  169.8652   29.4682  212.4279 C   0  0  0  0  0  0  0  0  0  0  0  0
  170.2087   28.8607  211.0627 C   0  0  0  0  0  0  0  0  0  0  0  0
  169.3252   29.4472  209.9450 C   0  0  1  0  0  0  0  0  0  0  0  0
  169.1084   30.8334  210.2041 O   0  0  0  0  0  0  0  0  0  0  0  0
  169.9239   29.2355  208.5321 C   0  0  1  0  0  0  0  0  0  0  0  0
  171.3239   29.5809  208.5298 O   0  0  0  0  0  0  0  0  0  0  0  0
  169.7777   27.7803  208.0037 C   0  0  2  0  0  0  0  0  0  0  0  0
  170.5997   27.5270  206.7270 C   0  0  0  0  0  0  0  0  0  0  0  0
  170.2872   28.5206  205.7442 O   0  0  0  0  0  0  0  0  0  0  0  0
  168.3073   30.0361  204.3951 O   0  0  0  0  0  0  0  0  0  0  0  0
  169.1543   28.4363  201.3367 O   0  0  0  0  0  0  0  0  0  0  0  0
  168.4789   27.1939  205.1635 O   0  0  0  0  0  0  0  0  0  0  0  0
  167.5642   24.7786  204.9303 O   0  0  0  0  0  0  0  0  0  0  0  0
  168.6828   26.1536  202.4923 O   0  0  0  0  0  0  0  0  0  0  0  0
  168.6862   25.7690  201.1191 C   0  0  0  0  0  0  0  0  0  0  0  0
  167.6154   24.7299  200.9314 C   0  0  0  0  0  0  0  0  0  0  0  0
  166.8111   24.3279  202.0054 C   0  0  0  0  0  0  0  0  0  0  0  0
  165.8094   23.3713  201.8223 C   0  0  0  0  0  0  0  0  0  0  0  0
  165.6001   22.8129  200.5624 C   0  0  0  0  0  0  0  0  0  0  0  0
  166.3860   23.2131  199.4836 C   0  0  0  0  0  0  0  0  0  0  0  0
  167.3855   24.1699  199.6653 C   0  0  0  0  0  0  0  0  0  0  0  0
  168.3672   27.4666  207.7360 N   0  0  0  0  0  0  0  0  0  0  0  0
  167.5624   26.8655  208.6748 C   0  0  0  0  0  0  0  0  0  0  0  0
  167.9811   26.1014  209.5345 O   0  0  0  0  0  0  0  0  0  0  0  0
  166.0822   27.1390  208.4898 C   0  0  0  0  0  0  0  0  0  0  0  0
  165.4453   26.3587  207.3409 C   0  0  0  0  0  0  0  0  0  0  0  0
  164.9357   27.2871  206.2330 C   0  0  0  0  0  0  0  0  0  0  0  0
  164.3146   26.5096  205.0667 C   0  0  0  0  0  0  0  0  0  0  0  0
  163.7632   27.4475  203.9909 C   0  0  0  0  0  0  0  0  0  0  0  0
  163.7469   26.8274  202.5884 C   0  0  0  0  0  0  0  0  0  0  0  0
  163.6736   27.8543  201.4563 C   0  0  0  0  0  0  0  0  0  0  0  0
  162.6349   27.4568  200.4049 C   0  0  0  0  0  0  0  0  0  0  0  0
  161.2440   27.9666  200.7860 C   0  0  0  0  0  0  0  0  0  0  0  0
  160.7174   28.9820  199.7681 C   0  0  0  0  0  0  0  0  0  0  0  0
  160.1573   28.3084  198.5108 C   0  0  0  0  0  0  0  0  0  0  0  0
  158.8345   28.9175  198.0348 C   0  0  0  0  0  0  0  0  0  0  0  0
  158.9830   29.7700  196.7668 C   0  0  0  0  0  0  0  0  0  0  0  0
  158.9244   31.2865  196.9914 C   0  0  0  0  0  0  0  0  0  0  0  0
  158.2072   32.0403  195.8678 C   0  0  0  0  0  0  0  0  0  0  0  0
  158.9580   33.3180  195.4842 C   0  0  0  0  0  0  0  0  0  0  0  0
  158.3405   34.0651  194.2967 C   0  0  0  0  0  0  0  0  0  0  0  0
  157.8339   35.4841  194.5790 C   0  0  0  0  0  0  0  0  0  0  0  0
  157.7480   36.3686  193.3334 C   0  0  0  0  0  0  0  0  0  0  0  0
  157.0968   35.6649  192.1351 C   0  0  0  0  0  0  0  0  0  0  0  0
  155.8842   36.4115  191.5717 C   0  0  0  0  0  0  0  0  0  0  0  0
  156.2625   37.8223  191.1140 C   0  0  0  0  0  0  0  0  0  0  0  0
  156.2271   37.9939  189.5921 C   0  0  0  0  0  0  0  0  0  0  0  0
  155.5618   39.2940  189.1373 C   0  0  0  0  0  0  0  0  0  0  0  0
  154.9008   39.1370  187.7767 C   0  0  0  0  0  0  0  0  0  0  0  0
  1  2  1  0
  1  6  1  6
 30  1  1  0
  3  2  1  0
  2 32  1  1
  4  3  1  0
  3 29  1  6
  5  4  1  0
  4 28  1  1
  5 27  1  1
  5 30  1  0
  6 31  1  0
  8  7  1  0
  9  8  1  0
 10  9  1  0
 11 10  1  0
 12 11  1  0
 13 12  1  0
 14 13  1  0
 15 14  1  0
 16 15  1  0
 17 16  1  0
 18 17  1  0
 19 18  1  0
 20 19  1  0
 21 20  1  0
 21 22  1  1
 23 21  1  0
 23 24  1  1
 25 23  1  0
 25 26  1  6
 25 40  1  0
 26 27  1  0
 32 33  1  0
 33 34  1  0
 34 35  2  0
 34 39  1  0
 35 36  1  0
 36 37  2  0
 37 38  1  0
 38 39  2  0
 40 41  1  0
 41 42  2  0
 41 43  1  0
 43 44  1  0
 44 45  1  0
 45 46  1  0
 46 47  1  0
 47 48  1  0
 48 49  1  0
 49 50  1  0
 50 51  1  0
 51 52  1  0
 52 53  1  0
 53 54  1  0
 54 55  1  0
 55 56  1  0
 56 57  1  0
 57 58  1  0
 58 59  1  0
 59 60  1  0
 60 61  1  0
 61 62  1  0
 62 63  1  0
 63 64  1  0
 64 65  1  0
 65 66  1  0
 66 67  1  0
M  END
$$$$
