
     RDKit          3D

 67 68  0  0  0  0  0  0  0  0999 V2000
  173.2020   28.8953  210.0081 C   0  0  1  0  0  0  0  0  0  0  0  0
  172.7131   28.0821  211.2194 C   0  0  1  0  0  0  0  0  0  0  0  0
  171.3200   28.6020  211.6328 C   0  0  1  0  0  0  0  0  0  0  0  0
  170.4859   29.0895  210.4380 C   0  0  2  0  0  0  0  0  0  0  0  0
  170.9909   28.4548  209.1226 C   0  0  1  0  0  0  0  0  0  0  0  0
  174.6199   28.5192  209.5702 C   0  0  0  0  0  0  0  0  0  0  0  0
  157.2685   27.1549  195.5244 C   0  0  0  0  0  0  0  0  0  0  0  0
  157.9049   27.9525  196.6507 C   0  0  0  0  0  0  0  0  0  0  0  0
  159.4253   28.0243  196.5034 C   0  0  0  0  0  0  0  0  0  0  0  0
  160.0301   29.0114  197.5018 C   0  0  0  0  0  0  0  0  0  0  0  0
  160.3239   30.3645  196.8504 C   0  0  0  0  0  0  0  0  0  0  0  0
  161.0913   31.2794  197.8078 C   0  0  0  0  0  0  0  0  0  0  0  0
  162.5991   31.0240  197.7448 C   0  0  0  0  0  0  0  0  0  0  0  0
  163.3874   31.8816  198.7398 C   0  0  0  0  0  0  0  0  0  0  0  0
  164.3476   31.1148  199.6517 C   0  0  0  0  0  0  0  0  0  0  0  0
  165.0614   32.0155  200.6665 C   0  0  0  0  0  0  0  0  0  0  0  0
  166.1680   31.2483  201.3970 C   0  0  0  0  0  0  0  0  0  0  0  0
  166.9835   32.1115  202.3635 C   0  0  0  0  0  0  0  0  0  0  0  0
  168.1325   31.4060  203.0868 C   0  0  0  0  0  0  0  0  0  0  0  0
  169.3921   32.2565  203.2890 C   0  0  0  0  0  0  0  0  0  0  0  0
  170.5086   31.4557  203.9859 C   0  0  1  0  0  0  0  0  0  0  0  0
  171.7482   31.7215  203.3314 O   0  0  0  0  0  0  0  0  0  0  0  0
  170.6078   31.7569  205.5021 C   0  0  1  0  0  0  0  0  0  0  0  0
  170.0769   33.0679  205.7831 O   0  0  0  0  0  0  0  0  0  0  0  0
  169.8609   30.7248  206.3939 C   0  0  2  0  0  0  0  0  0  0  0  0
  170.7255   30.2124  207.5600 C   0  0  0  0  0  0  0  0  0  0  0  0
  170.2109   28.9621  208.0321 O   0  0  0  0  0  0  0  0  0  0  0  0
  170.5979   30.5247  210.3657 O   0  0  0  0  0  0  0  0  0  0  0  0
  170.6196   27.5750  212.3478 O   0  0  0  0  0  0  0  0  0  0  0  0
  172.3673   28.7214  208.8441 O   0  0  0  0  0  0  0  0  0  0  0  0
  175.4754   28.4456  210.7107 O   0  0  0  0  0  0  0  0  0  0  0  0
  172.5671   26.6898  210.8670 O   0  0  0  0  0  0  0  0  0  0  0  0
  172.0961   25.8776  211.9404 C   0  0  0  0  0  0  0  0  0  0  0  0
  173.1002   24.7796  212.1591 C   0  0  0  0  0  0  0  0  0  0  0  0
  174.0458   24.4669  211.1742 C   0  0  0  0  0  0  0  0  0  0  0  0
  174.9844   23.4543  211.3880 C   0  0  0  0  0  0  0  0  0  0  0  0
  174.9887   22.7499  212.5908 C   0  0  0  0  0  0  0  0  0  0  0  0
  174.0605   23.0595  213.5830 C   0  0  0  0  0  0  0  0  0  0  0  0
  173.1240   24.0721  213.3709 C   0  0  0  0  0  0  0  0  0  0  0  0
  169.4099   29.5790  205.5917 N   0  0  0  0  0  0  0  0  0  0  0  0
  168.4098   28.7378  206.0188 C   0  0  0  0  0  0  0  0  0  0  0  0
  167.4653   29.1045  206.7057 O   0  0  0  0  0  0  0  0  0  0  0  0
  168.6300   27.2804  205.6614 C   0  0  0  0  0  0  0  0  0  0  0  0
  168.4505   26.9713  204.1759 C   0  0  0  0  0  0  0  0  0  0  0  0
  167.0025   26.5971  203.8410 C   0  0  0  0  0  0  0  0  0  0  0  0
  166.2412   26.0771  205.0660 C   0  0  0  0  0  0  0  0  0  0  0  0
  164.8158   25.6513  204.7080 C   0  0  0  0  0  0  0  0  0  0  0  0
  164.0738   24.9663  205.8621 C   0  0  0  0  0  0  0  0  0  0  0  0
  163.6325   23.5340  205.5532 C   0  0  0  0  0  0  0  0  0  0  0  0
  162.8999   22.9045  206.7404 C   0  0  0  0  0  0  0  0  0  0  0  0
  162.9811   21.3779  206.6898 C   0  0  0  0  0  0  0  0  0  0  0  0
  162.2550   20.7353  207.8749 C   0  0  0  0  0  0  0  0  0  0  0  0
  161.6331   19.3825  207.5120 C   0  0  0  0  0  0  0  0  0  0  0  0
  162.3678   18.1910  208.1346 C   0  0  0  0  0  0  0  0  0  0  0  0
  161.6073   17.5578  209.3082 C   0  0  0  0  0  0  0  0  0  0  0  0
  160.9229   16.2209  208.9950 C   0  0  0  0  0  0  0  0  0  0  0  0
  159.5256   16.0947  209.6089 C   0  0  0  0  0  0  0  0  0  0  0  0
  159.5979   15.6993  211.0860 C   0  0  0  0  0  0  0  0  0  0  0  0
  158.4865   14.7388  211.5240 C   0  0  0  0  0  0  0  0  0  0  0  0
  158.6156   14.1520  212.9343 C   0  0  0  0  0  0  0  0  0  0  0  0
  157.6346   14.7505  213.9446 C   0  0  0  0  0  0  0  0  0  0  0  0
  158.1653   16.0196  214.6248 C   0  0  0  0  0  0  0  0  0  0  0  0
  157.0712   17.0364  214.9625 C   0  0  0  0  0  0  0  0  0  0  0  0
  157.6613   18.3005  215.5924 C   0  0  0  0  0  0  0  0  0  0  0  0
  156.5965   19.3098  216.0336 C   0  0  0  0  0  0  0  0  0  0  0  0
  156.8215   20.7185  215.4820 C   0  0  0  0  0  0  0  0  0  0  0  0
  156.4207   20.8159  214.0182 C   0  0  0  0  0  0  0  0  0  0  0  0
  1  2  1  0
  1  6  1  6
 30  1  1  0
  3  2  1  0
  2 32  1  6
  4  3  1  0
  3 29  1  6
  5  4  1  0
  4 28  1  6
  5 27  1  6
  5 30  1  0
  6 31  1  0
  8  7  1  0
  9  8  1  0
 10  9  1  0
 11 10  1  0
 12 11  1  0
 13 12  1  0
 14 13  1  0
 15 14  1  0
 16 15  1  0
 17 16  1  0
 18 17  1  0
 19 18  1  0
 20 19  1  0
 21 20  1  0
 21 22  1  6
 23 21  1  0
 23 24  1  6
 25 23  1  0
 25 26  1  1
 25 40  1  0
 26 27  1  0
 32 33  1  0
 33 34  1  0
 34 35  2  0
 34 39  1  0
 35 36  1  0
 36 37  2  0
 37 38  1  0
 38 39  2  0
 40 41  1  0
 41 42  2  0
 41 43  1  0
 43 44  1  0
 44 45  1  0
 45 46  1  0
 46 47  1  0
 47 48  1  0
 48 49  1  0
 49 50  1  0
 50 51  1  0
 51 52  1  0
 52 53  1  0
 53 54  1  0
 54 55  1  0
 55 56  1  0
 56 57  1  0
 57 58  1  0
 58 59  1  0
 59 60  1  0
 60 61  1  0
 61 62  1  0
 62 63  1  0
 63 64  1  0
 64 65  1  0
 65 66  1  0
 66 67  1  0
M  END
$$$$
