
     RDKit          3D

 67 68  0  0  0  0  0  0  0  0999 V2000
  175.1893   30.6222  207.9065 C   0  0  1  0  0  0  0  0  0  0  0  0
  176.4717   29.8196  208.1870 C   0  0  1  0  0  0  0  0  0  0  0  0
  176.2249   28.9058  209.4061 C   0  0  1  0  0  0  0  0  0  0  0  0
  174.7740   28.4078  209.4950 C   0  0  2  0  0  0  0  0  0  0  0  0
  174.0863   28.4756  208.1128 C   0  0  1  0  0  0  0  0  0  0  0  0
  175.3542   31.6306  206.7664 C   0  0  0  0  0  0  0  0  0  0  0  0
  156.0680   32.4299  196.6901 C   0  0  0  0  0  0  0  0  0  0  0  0
  156.5152   31.6995  197.9456 C   0  0  0  0  0  0  0  0  0  0  0  0
  157.5128   30.5854  197.6263 C   0  0  0  0  0  0  0  0  0  0  0  0
  157.9413   29.8484  198.8952 C   0  0  0  0  0  0  0  0  0  0  0  0
  158.8827   30.6985  199.7511 C   0  0  0  0  0  0  0  0  0  0  0  0
  159.3767   29.9135  200.9686 C   0  0  0  0  0  0  0  0  0  0  0  0
  160.9054   29.8652  201.0261 C   0  0  0  0  0  0  0  0  0  0  0  0
  161.4281   28.8699  202.0668 C   0  0  0  0  0  0  0  0  0  0  0  0
  162.1673   29.4889  203.2551 C   0  0  0  0  0  0  0  0  0  0  0  0
  162.9924   28.4684  204.0478 C   0  0  0  0  0  0  0  0  0  0  0  0
  164.4915   28.7562  203.9179 C   0  0  0  0  0  0  0  0  0  0  0  0
  165.3145   28.3031  205.1267 C   0  0  0  0  0  0  0  0  0  0  0  0
  166.8288   28.4926  205.0165 C   0  0  0  0  0  0  0  0  0  0  0  0
  167.6276   28.0732  206.2562 C   0  0  0  0  0  0  0  0  0  0  0  0
  169.1421   28.2574  206.0413 C   0  0  1  0  0  0  0  0  0  0  0  0
  169.3786   28.6033  204.6775 O   0  0  0  0  0  0  0  0  0  0  0  0
  169.7608   29.3100  206.9945 C   0  0  1  0  0  0  0  0  0  0  0  0
  168.7596   30.2691  207.3911 O   0  0  0  0  0  0  0  0  0  0  0  0
  170.3879   28.6973  208.2788 C   0  0  2  0  0  0  0  0  0  0  0  0
  171.8468   29.1384  208.4956 C   0  0  0  0  0  0  0  0  0  0  0  0
  172.7281   28.0373  208.2472 O   0  0  0  0  0  0  0  0  0  0  0  0
  174.0685   29.2409  210.4362 O   0  0  0  0  0  0  0  0  0  0  0  0
  177.1340   27.7975  209.3641 O   0  0  0  0  0  0  0  0  0  0  0  0
  174.0743   29.7840  207.5374 O   0  0  0  0  0  0  0  0  0  0  0  0
  176.2745   32.6515  207.1523 O   0  0  0  0  0  0  0  0  0  0  0  0
  176.7891   28.9672  207.0659 O   0  0  0  0  0  0  0  0  0  0  0  0
  177.6467   27.8789  207.4035 C   0  0  0  0  0  0  0  0  0  0  0  0
  178.8064   27.8953  206.4462 C   0  0  0  0  0  0  0  0  0  0  0  0
  179.9545   27.1335  206.6986 C   0  0  0  0  0  0  0  0  0  0  0  0
  181.0237   27.1427  205.7994 C   0  0  0  0  0  0  0  0  0  0  0  0
  180.9514   27.9093  204.6375 C   0  0  0  0  0  0  0  0  0  0  0  0
  179.8098   28.6624  204.3695 C   0  0  0  0  0  0  0  0  0  0  0  0
  178.7407   28.6522  205.2662 C   0  0  0  0  0  0  0  0  0  0  0  0
  170.3326   27.2295  208.2317 N   0  0  0  0  0  0  0  0  0  0  0  0
  169.8320   26.4843  209.2729 C   0  0  0  0  0  0  0  0  0  0  0  0
  170.1399   26.6661  210.4436 O   0  0  0  0  0  0  0  0  0  0  0  0
  168.9438   25.3333  208.8414 C   0  0  0  0  0  0  0  0  0  0  0  0
  167.7781   25.0588  209.7904 C   0  0  0  0  0  0  0  0  0  0  0  0
  166.7837   24.0541  209.1982 C   0  0  0  0  0  0  0  0  0  0  0  0
  167.0460   22.6245  209.6858 C   0  0  0  0  0  0  0  0  0  0  0  0
  165.9813   21.6492  209.1792 C   0  0  0  0  0  0  0  0  0  0  0  0
  165.4563   20.6996  210.2629 C   0  0  0  0  0  0  0  0  0  0  0  0
  164.1077   20.0592  209.9270 C   0  0  0  0  0  0  0  0  0  0  0  0
  163.7776   18.9119  210.8847 C   0  0  0  0  0  0  0  0  0  0  0  0
  162.3337   19.0078  211.3804 C   0  0  0  0  0  0  0  0  0  0  0  0
  161.3430   19.0965  210.2163 C   0  0  0  0  0  0  0  0  0  0  0  0
  159.9623   18.5422  210.5838 C   0  0  0  0  0  0  0  0  0  0  0  0
  159.0260   19.5960  211.1837 C   0  0  0  0  0  0  0  0  0  0  0  0
  157.7355   19.7889  210.3750 C   0  0  0  0  0  0  0  0  0  0  0  0
  157.5564   21.1818  209.7574 C   0  0  0  0  0  0  0  0  0  0  0  0
  156.4164   21.2526  208.7372 C   0  0  0  0  0  0  0  0  0  0  0  0
  156.1399   22.6956  208.3076 C   0  0  0  0  0  0  0  0  0  0  0  0
  155.1687   22.8141  207.1276 C   0  0  0  0  0  0  0  0  0  0  0  0
  155.4012   23.9924  206.1750 C   0  0  0  0  0  0  0  0  0  0  0  0
  154.5487   25.2223  206.4943 C   0  0  0  0  0  0  0  0  0  0  0  0
  154.8487   26.4199  205.5829 C   0  0  0  0  0  0  0  0  0  0  0  0
  155.2013   26.0228  204.1465 C   0  0  0  0  0  0  0  0  0  0  0  0
  155.5046   27.2529  203.2875 C   0  0  0  0  0  0  0  0  0  0  0  0
  156.2820   26.9211  202.0098 C   0  0  0  0  0  0  0  0  0  0  0  0
  157.6697   26.3338  202.2718 C   0  0  0  0  0  0  0  0  0  0  0  0
  158.4847   26.2336  200.9916 C   0  0  0  0  0  0  0  0  0  0  0  0
  1  2  1  0
  1  6  1  6
 30  1  1  0
  3  2  1  0
  2 32  1  6
  4  3  1  0
  3 29  1  6
  5  4  1  0
  4 28  1  1
  5 27  1  1
  5 30  1  0
  6 31  1  0
  8  7  1  0
  9  8  1  0
 10  9  1  0
 11 10  1  0
 12 11  1  0
 13 12  1  0
 14 13  1  0
 15 14  1  0
 16 15  1  0
 17 16  1  0
 18 17  1  0
 19 18  1  0
 20 19  1  0
 21 20  1  0
 21 22  1  6
 23 21  1  0
 23 24  1  1
 25 23  1  0
 25 26  1  6
 25 40  1  0
 26 27  1  0
 32 33  1  0
 33 34  1  0
 34 35  2  0
 34 39  1  0
 35 36  1  0
 36 37  2  0
 37 38  1  0
 38 39  2  0
 40 41  1  0
 41 42  2  0
 41 43  1  0
 43 44  1  0
 44 45  1  0
 45 46  1  0
 46 47  1  0
 47 48  1  0
 48 49  1  0
 49 50  1  0
 50 51  1  0
 51 52  1  0
 52 53  1  0
 53 54  1  0
 54 55  1  0
 55 56  1  0
 56 57  1  0
 57 58  1  0
 58 59  1  0
 59 60  1  0
 60 61  1  0
 61 62  1  0
 62 63  1  0
 63 64  1  0
 64 65  1  0
 65 66  1  0
 66 67  1  0
M  END
$$$$
