
     RDKit          3D

 67 68  0  0  0  0  0  0  0  0999 V2000
  162.5211   22.8033  206.6232 C   0  0  1  0  0  0  0  0  0  0  0  0
  161.9847   22.7019  208.0617 C   0  0  1  0  0  0  0  0  0  0  0  0
  162.7860   23.6711  208.9564 C   0  0  1  0  0  0  0  0  0  0  0  0
  163.2302   24.9406  208.2133 C   0  0  2  0  0  0  0  0  0  0  0  0
  162.3370   25.1923  206.9776 C   0  0  1  0  0  0  0  0  0  0  0  0
  161.8524   21.8132  205.6660 C   0  0  0  0  0  0  0  0  0  0  0  0
  158.6932   36.1607  195.0841 C   0  0  0  0  0  0  0  0  0  0  0  0
  159.5425   35.1596  195.8498 C   0  0  0  0  0  0  0  0  0  0  0  0
  160.9597   35.6836  196.0847 C   0  0  0  0  0  0  0  0  0  0  0  0
  161.8244   34.6385  196.7897 C   0  0  0  0  0  0  0  0  0  0  0  0
  162.8275   33.9952  195.8296 C   0  0  0  0  0  0  0  0  0  0  0  0
  164.1116   33.5987  196.5623 C   0  0  0  0  0  0  0  0  0  0  0  0
  163.8268   32.6392  197.7202 C   0  0  0  0  0  0  0  0  0  0  0  0
  164.2773   33.1952  199.0748 C   0  0  0  0  0  0  0  0  0  0  0  0
  164.5033   32.1518  200.1711 C   0  0  0  0  0  0  0  0  0  0  0  0
  165.9619   31.6901  200.2703 C   0  0  0  0  0  0  0  0  0  0  0  0
  166.1511   30.7194  201.4403 C   0  0  0  0  0  0  0  0  0  0  0  0
  167.5706   30.1570  201.5530 C   0  0  0  0  0  0  0  0  0  0  0  0
  167.7856   29.0883  202.6267 C   0  0  0  0  0  0  0  0  0  0  0  0
  166.5039   28.4399  203.1631 C   0  0  0  0  0  0  0  0  0  0  0  0
  166.2697   28.7925  204.6445 C   0  0  1  0  0  0  0  0  0  0  0  0
  166.2605   30.2121  204.7878 O   0  0  0  0  0  0  0  0  0  0  0  0
  164.9696   28.1707  205.2122 C   0  0  1  0  0  0  0  0  0  0  0  0
  163.8313   28.6171  204.4476 O   0  0  0  0  0  0  0  0  0  0  0  0
  164.9736   26.6156  205.2217 C   0  0  2  0  0  0  0  0  0  0  0  0
  163.5582   26.0178  205.1260 C   0  0  0  0  0  0  0  0  0  0  0  0
  162.8064   26.3623  206.2952 O   0  0  0  0  0  0  0  0  0  0  0  0
  164.6005   24.7658  207.8017 O   0  0  0  0  0  0  0  0  0  0  0  0
  162.0054   24.0123  210.1100 O   0  0  0  0  0  0  0  0  0  0  0  0
  162.3248   24.1102  206.0439 O   0  0  0  0  0  0  0  0  0  0  0  0
  161.6313   20.5699  206.3320 O   0  0  0  0  0  0  0  0  0  0  0  0
  160.6010   23.1099  208.1144 O   0  0  0  0  0  0  0  0  0  0  0  0
  159.8122   22.3317  209.0122 C   0  0  0  0  0  0  0  0  0  0  0  0
  158.5595   23.1078  209.3124 C   0  0  0  0  0  0  0  0  0  0  0  0
  157.6542   23.4291  208.2929 C   0  0  0  0  0  0  0  0  0  0  0  0
  156.4857   24.1393  208.5798 C   0  0  0  0  0  0  0  0  0  0  0  0
  156.2102   24.5292  209.8893 C   0  0  0  0  0  0  0  0  0  0  0  0
  157.0973   24.2055  210.9141 C   0  0  0  0  0  0  0  0  0  0  0  0
  158.2636   23.4944  210.6286 C   0  0  0  0  0  0  0  0  0  0  0  0
  165.6277   26.1076  206.4358 N   0  0  0  0  0  0  0  0  0  0  0  0
  166.5059   26.8728  207.1661 C   0  0  0  0  0  0  0  0  0  0  0  0
  166.2094   27.9494  207.6674 O   0  0  0  0  0  0  0  0  0  0  0  0
  167.9195   26.3251  207.2081 C   0  0  0  0  0  0  0  0  0  0  0  0
  168.6246   26.5281  208.5484 C   0  0  0  0  0  0  0  0  0  0  0  0
  169.7912   25.5515  208.7339 C   0  0  0  0  0  0  0  0  0  0  0  0
  170.5698   25.8193  210.0272 C   0  0  0  0  0  0  0  0  0  0  0  0
  171.7514   24.8601  210.1856 C   0  0  0  0  0  0  0  0  0  0  0  0
  172.5283   25.0570  211.4931 C   0  0  0  0  0  0  0  0  0  0  0  0
  173.5312   23.9411  211.7934 C   0  0  0  0  0  0  0  0  0  0  0  0
  172.9108   22.5578  211.5833 C   0  0  0  0  0  0  0  0  0  0  0  0
  172.9604   21.7319  212.8699 C   0  0  0  0  0  0  0  0  0  0  0  0
  172.0535   20.5011  212.7847 C   0  0  0  0  0  0  0  0  0  0  0  0
  171.1685   20.3436  214.0259 C   0  0  0  0  0  0  0  0  0  0  0  0
  169.9533   19.4401  213.7933 C   0  0  0  0  0  0  0  0  0  0  0  0
  169.0785   19.2696  215.0433 C   0  0  0  0  0  0  0  0  0  0  0  0
  168.4568   17.8780  215.2179 C   0  0  0  0  0  0  0  0  0  0  0  0
  167.7102   17.7076  216.5441 C   0  0  0  0  0  0  0  0  0  0  0  0
  166.1935   17.7460  216.3405 C   0  0  0  0  0  0  0  0  0  0  0  0
  165.7403   17.2273  214.9711 C   0  0  0  0  0  0  0  0  0  0  0  0
  165.0212   18.2366  214.0688 C   0  0  0  0  0  0  0  0  0  0  0  0
  164.8830   17.7774  212.6158 C   0  0  0  0  0  0  0  0  0  0  0  0
  164.1847   18.8084  211.7190 C   0  0  0  0  0  0  0  0  0  0  0  0
  162.9594   18.2531  210.9872 C   0  0  0  0  0  0  0  0  0  0  0  0
  162.8014   18.8895  209.6040 C   0  0  0  0  0  0  0  0  0  0  0  0
  161.5892   18.3612  208.8305 C   0  0  0  0  0  0  0  0  0  0  0  0
  161.5050   16.8344  208.7915 C   0  0  0  0  0  0  0  0  0  0  0  0
  160.2762   16.3621  208.0300 C   0  0  0  0  0  0  0  0  0  0  0  0
  1  2  1  0
  1  6  1  6
 30  1  1  0
  3  2  1  0
  2 32  1  6
  4  3  1  0
  3 29  1  1
  5  4  1  0
  4 28  1  6
  5 27  1  6
  5 30  1  0
  6 31  1  0
  8  7  1  0
  9  8  1  0
 10  9  1  0
 11 10  1  0
 12 11  1  0
 13 12  1  0
 14 13  1  0
 15 14  1  0
 16 15  1  0
 17 16  1  0
 18 17  1  0
 19 18  1  0
 20 19  1  0
 21 20  1  0
 21 22  1  6
 23 21  1  0
 23 24  1  6
 25 23  1  0
 25 26  1  1
 25 40  1  0
 26 27  1  0
 32 33  1  0
 33 34  1  0
 34 35  2  0
 34 39  1  0
 35 36  1  0
 36 37  2  0
 37 38  1  0
 38 39  2  0
 40 41  1  0
 41 42  2  0
 41 43  1  0
 43 44  1  0
 44 45  1  0
 45 46  1  0
 46 47  1  0
 47 48  1  0
 48 49  1  0
 49 50  1  0
 50 51  1  0
 51 52  1  0
 52 53  1  0
 53 54  1  0
 54 55  1  0
 55 56  1  0
 56 57  1  0
 57 58  1  0
 58 59  1  0
 59 60  1  0
 60 61  1  0
 61 62  1  0
 62 63  1  0
 63 64  1  0
 64 65  1  0
 65 66  1  0
 66 67  1  0
M  END
$$$$
