
     RDKit          3D

 67 68  0  0  0  0  0  0  0  0999 V2000
  170.6158   29.4094  205.3365 C   0  0  1  0  0  0  0  0  0  0  0  0
  171.7898   28.7724  204.5727 C   0  0  1  0  0  0  0  0  0  0  0  0
  171.3744   27.3560  204.1218 C   0  0  1  0  0  0  0  0  0  0  0  0
  169.8779   27.2499  203.7900 C   0  0  2  0  0  0  0  0  0  0  0  0
  169.2903   28.6407  203.4604 C   0  0  1  0  0  0  0  0  0  0  0  0
  170.9543   30.7885  205.9082 C   0  0  0  0  0  0  0  0  0  0  0  0
  160.5640   32.0404  201.1029 C   0  0  0  0  0  0  0  0  0  0  0  0
  160.2498   30.7173  201.7814 C   0  0  0  0  0  0  0  0  0  0  0  0
  160.9169   29.5424  201.0651 C   0  0  0  0  0  0  0  0  0  0  0  0
  160.6498   28.2269  201.7967 C   0  0  0  0  0  0  0  0  0  0  0  0
  161.4893   27.0825  201.2248 C   0  0  0  0  0  0  0  0  0  0  0  0
  161.6130   25.9363  202.2316 C   0  0  0  0  0  0  0  0  0  0  0  0
  162.9868   25.9239  202.9060 C   0  0  0  0  0  0  0  0  0  0  0  0
  163.1175   24.8236  203.9639 C   0  0  0  0  0  0  0  0  0  0  0  0
  164.4495   24.7906  204.7167 C   0  0  0  0  0  0  0  0  0  0  0  0
  164.4710   25.7128  205.9413 C   0  0  0  0  0  0  0  0  0  0  0  0
  165.3451   26.9444  205.6845 C   0  0  0  0  0  0  0  0  0  0  0  0
  165.4257   27.9038  206.8750 C   0  0  0  0  0  0  0  0  0  0  0  0
  166.6186   28.8618  206.8849 C   0  0  0  0  0  0  0  0  0  0  0  0
  166.3252   30.2583  207.4459 C   0  0  0  0  0  0  0  0  0  0  0  0
  167.1852   31.3357  206.7578 C   0  0  1  0  0  0  0  0  0  0  0  0
  167.9717   32.0016  207.7445 O   0  0  0  0  0  0  0  0  0  0  0  0
  168.0804   30.7614  205.6317 C   0  0  1  0  0  0  0  0  0  0  0  0
  169.4535   31.1472  205.8444 O   0  0  0  0  0  0  0  0  0  0  0  0
  168.0197   29.2120  205.5146 C   0  0  2  0  0  0  0  0  0  0  0  0
  167.1070   28.7387  204.3688 C   0  0  0  0  0  0  0  0  0  0  0  0
  167.8889   28.5019  203.1926 O   0  0  0  0  0  0  0  0  0  0  0  0
  169.2015   26.6889  204.9326 O   0  0  0  0  0  0  0  0  0  0  0  0
  172.1674   26.9620  202.9938 O   0  0  0  0  0  0  0  0  0  0  0  0
  169.4476   29.5975  204.5107 O   0  0  0  0  0  0  0  0  0  0  0  0
  171.7210   31.5309  204.9600 O   0  0  0  0  0  0  0  0  0  0  0  0
  172.0903   29.5332  203.3832 O   0  0  0  0  0  0  0  0  0  0  0  0
  173.4409   29.9873  203.3244 C   0  0  0  0  0  0  0  0  0  0  0  0
  173.9270   29.7984  201.9138 C   0  0  0  0  0  0  0  0  0  0  0  0
  175.2913   29.6342  201.6422 C   0  0  0  0  0  0  0  0  0  0  0  0
  175.7359   29.4463  200.3311 C   0  0  0  0  0  0  0  0  0  0  0  0
  174.8193   29.4154  199.2814 C   0  0  0  0  0  0  0  0  0  0  0  0
  173.4583   29.5659  199.5401 C   0  0  0  0  0  0  0  0  0  0  0  0
  173.0133   29.7516  200.8496 C   0  0  0  0  0  0  0  0  0  0  0  0
  167.5552   28.6160  206.7750 N   0  0  0  0  0  0  0  0  0  0  0  0
  168.4074   27.9539  207.6268 C   0  0  0  0  0  0  0  0  0  0  0  0
  169.6260   28.0605  207.5816 O   0  0  0  0  0  0  0  0  0  0  0  0
  167.7165   26.9834  208.5653 C   0  0  0  0  0  0  0  0  0  0  0  0
  168.4689   25.6683  208.7629 C   0  0  0  0  0  0  0  0  0  0  0  0
  167.5715   24.5816  209.3652 C   0  0  0  0  0  0  0  0  0  0  0  0
  168.2908   23.2320  209.4742 C   0  0  0  0  0  0  0  0  0  0  0  0
  167.4498   22.0937  208.8927 C   0  0  0  0  0  0  0  0  0  0  0  0
  166.4818   21.4693  209.9051 C   0  0  0  0  0  0  0  0  0  0  0  0
  165.5849   20.3787  209.3154 C   0  0  0  0  0  0  0  0  0  0  0  0
  164.6278   19.8108  210.3660 C   0  0  0  0  0  0  0  0  0  0  0  0
  163.3326   20.6222  210.4256 C   0  0  0  0  0  0  0  0  0  0  0  0
  162.1711   19.8795  209.7594 C   0  0  0  0  0  0  0  0  0  0  0  0
  161.2040   20.8313  209.0471 C   0  0  0  0  0  0  0  0  0  0  0  0
  159.9945   20.1190  208.4332 C   0  0  0  0  0  0  0  0  0  0  0  0
  158.9233   21.0871  207.9116 C   0  0  0  0  0  0  0  0  0  0  0  0
  158.9924   21.3862  206.4085 C   0  0  0  0  0  0  0  0  0  0  0  0
  157.9962   22.4573  205.9552 C   0  0  0  0  0  0  0  0  0  0  0  0
  158.1700   23.7541  206.7499 C   0  0  0  0  0  0  0  0  0  0  0  0
  156.8487   24.4527  207.0899 C   0  0  0  0  0  0  0  0  0  0  0  0
  156.3837   25.5360  206.1101 C   0  0  0  0  0  0  0  0  0  0  0  0
  156.1118   26.8898  206.7694 C   0  0  0  0  0  0  0  0  0  0  0  0
  156.4034   28.0815  205.8477 C   0  0  0  0  0  0  0  0  0  0  0  0
  155.2055   28.4996  204.9901 C   0  0  0  0  0  0  0  0  0  0  0  0
  155.4905   29.7980  204.2311 C   0  0  0  0  0  0  0  0  0  0  0  0
  154.4239   30.1322  203.1834 C   0  0  0  0  0  0  0  0  0  0  0  0
  153.6523   31.4183  203.4831 C   0  0  0  0  0  0  0  0  0  0  0  0
  152.6914   31.7683  202.3575 C   0  0  0  0  0  0  0  0  0  0  0  0
  1  2  1  0
  1  6  1  6
 30  1  1  0
  3  2  1  0
  2 32  1  6
  4  3  1  0
  3 29  1  6
  5  4  1  0
  4 28  1  1
  5 27  1  1
  5 30  1  0
  6 31  1  0
  8  7  1  0
  9  8  1  0
 10  9  1  0
 11 10  1  0
 12 11  1  0
 13 12  1  0
 14 13  1  0
 15 14  1  0
 16 15  1  0
 17 16  1  0
 18 17  1  0
 19 18  1  0
 20 19  1  0
 21 20  1  0
 21 22  1  1
 23 21  1  0
 23 24  1  1
 25 23  1  0
 25 26  1  6
 25 40  1  0
 26 27  1  0
 32 33  1  0
 33 34  1  0
 34 35  2  0
 34 39  1  0
 35 36  1  0
 36 37  2  0
 37 38  1  0
 38 39  2  0
 40 41  1  0
 41 42  2  0
 41 43  1  0
 43 44  1  0
 44 45  1  0
 45 46  1  0
 46 47  1  0
 47 48  1  0
 48 49  1  0
 49 50  1  0
 50 51  1  0
 51 52  1  0
 52 53  1  0
 53 54  1  0
 54 55  1  0
 55 56  1  0
 56 57  1  0
 57 58  1  0
 58 59  1  0
 59 60  1  0
 60 61  1  0
 61 62  1  0
 62 63  1  0
 63 64  1  0
 64 65  1  0
 65 66  1  0
 66 67  1  0
M  END
$$$$
