
     RDKit          3D

 67 68  0  0  0  0  0  0  0  0999 V2000
  174.5336   30.2655  208.3418 C   0  0  1  0  0  0  0  0  0  0  0  0
  175.0087   30.9717  209.6236 C   0  0  1  0  0  0  0  0  0  0  0  0
  173.7792   31.5608  210.3469 C   0  0  1  0  0  0  0  0  0  0  0  0
  172.5143   30.7076  210.1656 C   0  0  2  0  0  0  0  0  0  0  0  0
  172.8834   29.2529  209.7973 C   0  0  1  0  0  0  0  0  0  0  0  0
  175.6888   29.7199  207.4983 C   0  0  0  0  0  0  0  0  0  0  0  0
  154.7472   21.9131  208.8192 C   0  0  0  0  0  0  0  0  0  0  0  0
  155.7059   21.6724  207.6648 C   0  0  0  0  0  0  0  0  0  0  0  0
  156.4625   22.9454  207.2836 C   0  0  0  0  0  0  0  0  0  0  0  0
  157.4523   22.6800  206.1492 C   0  0  0  0  0  0  0  0  0  0  0  0
  158.2541   23.9342  205.7947 C   0  0  0  0  0  0  0  0  0  0  0  0
  159.3864   24.1637  206.7987 C   0  0  0  0  0  0  0  0  0  0  0  0
  160.6766   24.6035  206.1028 C   0  0  0  0  0  0  0  0  0  0  0  0
  161.8186   24.8732  207.0876 C   0  0  0  0  0  0  0  0  0  0  0  0
  163.1342   25.3361  206.4576 C   0  0  0  0  0  0  0  0  0  0  0  0
  163.5871   26.7138  206.9551 C   0  0  0  0  0  0  0  0  0  0  0  0
  164.4205   27.4341  205.8905 C   0  0  0  0  0  0  0  0  0  0  0  0
  164.9310   28.8086  206.3312 C   0  0  0  0  0  0  0  0  0  0  0  0
  166.3831   29.1314  205.9732 C   0  0  0  0  0  0  0  0  0  0  0  0
  167.0685   30.1473  206.8946 C   0  0  0  0  0  0  0  0  0  0  0  0
  168.5294   30.3964  206.4732 C   0  0  1  0  0  0  0  0  0  0  0  0
  168.5867   31.5755  205.6719 O   0  0  0  0  0  0  0  0  0  0  0  0
  169.4939   30.5007  207.6808 C   0  0  1  0  0  0  0  0  0  0  0  0
  169.0565   31.5429  208.5763 O   0  0  0  0  0  0  0  0  0  0  0  0
  169.6235   29.1805  208.4922 C   0  0  2  0  0  0  0  0  0  0  0  0
  170.5189   29.3332  209.7352 C   0  0  0  0  0  0  0  0  0  0  0  0
  171.6777   28.5022  209.6029 O   0  0  0  0  0  0  0  0  0  0  0  0
  171.7215   31.2945  209.1145 O   0  0  0  0  0  0  0  0  0  0  0  0
  174.0779   31.7255  211.7398 O   0  0  0  0  0  0  0  0  0  0  0  0
  173.6714   29.1401  208.6101 O   0  0  0  0  0  0  0  0  0  0  0  0
  176.2086   28.5335  208.0986 O   0  0  0  0  0  0  0  0  0  0  0  0
  175.6257   30.0253  210.5223 O   0  0  0  0  0  0  0  0  0  0  0  0
  176.9223   30.4221  210.9639 C   0  0  0  0  0  0  0  0  0  0  0  0
  177.3309   31.6269  210.1620 C   0  0  0  0  0  0  0  0  0  0  0  0
  177.7414   31.4948  208.8293 C   0  0  0  0  0  0  0  0  0  0  0  0
  178.1078   32.6192  208.0852 C   0  0  0  0  0  0  0  0  0  0  0  0
  178.0613   33.8854  208.6659 C   0  0  0  0  0  0  0  0  0  0  0  0
  177.6435   34.0310  209.9874 C   0  0  0  0  0  0  0  0  0  0  0  0
  177.2756   32.9088  210.7306 C   0  0  0  0  0  0  0  0  0  0  0  0
  170.1571   28.1038  207.6462 N   0  0  0  0  0  0  0  0  0  0  0  0
  169.4759   26.9262  207.4476 C   0  0  0  0  0  0  0  0  0  0  0  0
  168.4970   26.5928  208.1025 O   0  0  0  0  0  0  0  0  0  0  0  0
  170.1068   26.0108  206.4161 C   0  0  0  0  0  0  0  0  0  0  0  0
  169.1359   25.0017  205.8047 C   0  0  0  0  0  0  0  0  0  0  0  0
  167.7905   25.6452  205.4514 C   0  0  0  0  0  0  0  0  0  0  0  0
  166.8283   24.6499  204.7926 C   0  0  0  0  0  0  0  0  0  0  0  0
  165.6038   25.3522  204.2022 C   0  0  0  0  0  0  0  0  0  0  0  0
  164.2733   24.8416  204.7686 C   0  0  0  0  0  0  0  0  0  0  0  0
  163.0396   25.4836  204.1302 C   0  0  0  0  0  0  0  0  0  0  0  0
  161.8893   24.4822  204.0020 C   0  0  0  0  0  0  0  0  0  0  0  0
  160.6637   25.1325  203.3579 C   0  0  0  0  0  0  0  0  0  0  0  0
  160.4070   24.5821  201.9523 C   0  0  0  0  0  0  0  0  0  0  0  0
  159.2342   25.2830  201.2582 C   0  0  0  0  0  0  0  0  0  0  0  0
  159.6566   26.1058  200.0369 C   0  0  0  0  0  0  0  0  0  0  0  0
  158.5767   27.0914  199.5688 C   0  0  0  0  0  0  0  0  0  0  0  0
  158.9675   27.9638  198.3688 C   0  0  0  0  0  0  0  0  0  0  0  0
  160.2980   28.6980  198.5586 C   0  0  0  0  0  0  0  0  0  0  0  0
  160.8052   29.2854  197.2391 C   0  0  0  0  0  0  0  0  0  0  0  0
  162.1093   30.0791  197.3764 C   0  0  0  0  0  0  0  0  0  0  0  0
  162.1525   31.4383  196.6688 C   0  0  0  0  0  0  0  0  0  0  0  0
  162.1945   32.6317  197.6255 C   0  0  0  0  0  0  0  0  0  0  0  0
  162.1910   33.9861  196.9041 C   0  0  0  0  0  0  0  0  0  0  0  0
  160.8403   34.7057  196.9595 C   0  0  0  0  0  0  0  0  0  0  0  0
  159.6919   33.7629  196.5918 C   0  0  0  0  0  0  0  0  0  0  0  0
  158.3179   34.2884  197.0197 C   0  0  0  0  0  0  0  0  0  0  0  0
  157.1701   33.3259  196.7101 C   0  0  0  0  0  0  0  0  0  0  0  0
  156.3563   33.7936  195.5134 C   0  0  0  0  0  0  0  0  0  0  0  0
  1  2  1  0
  1  6  1  1
 30  1  1  0
  3  2  1  0
  2 32  1  1
  4  3  1  0
  3 29  1  1
  5  4  1  0
  4 28  1  6
  5 27  1  6
  5 30  1  0
  6 31  1  0
  8  7  1  0
  9  8  1  0
 10  9  1  0
 11 10  1  0
 12 11  1  0
 13 12  1  0
 14 13  1  0
 15 14  1  0
 16 15  1  0
 17 16  1  0
 18 17  1  0
 19 18  1  0
 20 19  1  0
 21 20  1  0
 21 22  1  1
 23 21  1  0
 23 24  1  1
 25 23  1  0
 25 26  1  1
 25 40  1  0
 26 27  1  0
 32 33  1  0
 33 34  1  0
 34 35  2  0
 34 39  1  0
 35 36  1  0
 36 37  2  0
 37 38  1  0
 38 39  2  0
 40 41  1  0
 41 42  2  0
 41 43  1  0
 43 44  1  0
 44 45  1  0
 45 46  1  0
 46 47  1  0
 47 48  1  0
 48 49  1  0
 49 50  1  0
 50 51  1  0
 51 52  1  0
 52 53  1  0
 53 54  1  0
 54 55  1  0
 55 56  1  0
 56 57  1  0
 57 58  1  0
 58 59  1  0
 59 60  1  0
 60 61  1  0
 61 62  1  0
 62 63  1  0
 63 64  1  0
 64 65  1  0
 65 66  1  0
 66 67  1  0
M  END
$$$$
