
     RDKit          3D

 67 68  0  0  0  0  0  0  0  0999 V2000
  171.7870   30.4944  207.6751 C   0  0  1  0  0  0  0  0  0  0  0  0
  172.5219   29.6259  208.7110 C   0  0  1  0  0  0  0  0  0  0  0  0
  171.6494   28.3932  209.0291 C   0  0  1  0  0  0  0  0  0  0  0  0
  170.8314   27.9128  207.8204 C   0  0  2  0  0  0  0  0  0  0  0  0
  171.4682   28.4008  206.4996 C   0  0  1  0  0  0  0  0  0  0  0  0
  172.5280   31.7950  207.3539 C   0  0  0  0  0  0  0  0  0  0  0  0
  155.1575   18.1205  212.3005 C   0  0  0  0  0  0  0  0  0  0  0  0
  156.3243   18.1434  211.3268 C   0  0  0  0  0  0  0  0  0  0  0  0
  156.8677   19.5591  211.1291 C   0  0  0  0  0  0  0  0  0  0  0  0
  157.9720   19.5833  210.0722 C   0  0  0  0  0  0  0  0  0  0  0  0
  158.9442   20.7432  210.2981 C   0  0  0  0  0  0  0  0  0  0  0  0
  160.0259   20.7713  209.2157 C   0  0  0  0  0  0  0  0  0  0  0  0
  160.6170   22.1728  209.0455 C   0  0  0  0  0  0  0  0  0  0  0  0
  161.9451   22.3499  209.7883 C   0  0  0  0  0  0  0  0  0  0  0  0
  162.5896   23.7321  209.6618 C   0  0  0  0  0  0  0  0  0  0  0  0
  164.0431   23.6758  209.1772 C   0  0  0  0  0  0  0  0  0  0  0  0
  164.8479   24.8612  209.7196 C   0  0  0  0  0  0  0  0  0  0  0  0
  164.9039   26.0577  208.7660 C   0  0  0  0  0  0  0  0  0  0  0  0
  165.6601   27.2865  209.2753 C   0  0  0  0  0  0  0  0  0  0  0  0
  165.6628   28.4880  208.3227 C   0  0  0  0  0  0  0  0  0  0  0  0
  166.2103   28.1066  206.9340 C   0  0  1  0  0  0  0  0  0  0  0  0
  166.2984   29.2826  206.1309 O   0  0  0  0  0  0  0  0  0  0  0  0
  167.5773   27.3815  207.0052 C   0  0  1  0  0  0  0  0  0  0  0  0
  167.3992   26.0337  207.4860 O   0  0  0  0  0  0  0  0  0  0  0  0
  168.3234   27.3206  205.6422 C   0  0  2  0  0  0  0  0  0  0  0  0
  169.7932   26.8871  205.7890 C   0  0  0  0  0  0  0  0  0  0  0  0
  170.6566   27.9622  205.4023 O   0  0  0  0  0  0  0  0  0  0  0  0
  169.4942   28.4366  207.9441 O   0  0  0  0  0  0  0  0  0  0  0  0
  172.4804   27.3349  209.5250 O   0  0  0  0  0  0  0  0  0  0  0  0
  171.6001   29.8214  206.4125 O   0  0  0  0  0  0  0  0  0  0  0  0
  173.1013   31.7159  206.0489 O   0  0  0  0  0  0  0  0  0  0  0  0
  173.7703   29.1432  208.1703 O   0  0  0  0  0  0  0  0  0  0  0  0
  174.9131   29.8293  208.6773 C   0  0  0  0  0  0  0  0  0  0  0  0
  175.2701   29.2099  210.0003 C   0  0  0  0  0  0  0  0  0  0  0  0
  175.3370   29.9899  211.1618 C   0  0  0  0  0  0  0  0  0  0  0  0
  175.6567   29.4067  212.3905 C   0  0  0  0  0  0  0  0  0  0  0  0
  175.9067   28.0377  212.4688 C   0  0  0  0  0  0  0  0  0  0  0  0
  175.8318   27.2490  211.3223 C   0  0  0  0  0  0  0  0  0  0  0  0
  175.5106   27.8305  210.0952 C   0  0  0  0  0  0  0  0  0  0  0  0
  168.2732   28.6247  204.9664 N   0  0  0  0  0  0  0  0  0  0  0  0
  167.2649   28.9552  204.0923 C   0  0  0  0  0  0  0  0  0  0  0  0
  166.1409   28.4731  204.1432 O   0  0  0  0  0  0  0  0  0  0  0  0
  167.6917   29.8915  202.9781 C   0  0  0  0  0  0  0  0  0  0  0  0
  167.3278   29.3979  201.5786 C   0  0  0  0  0  0  0  0  0  0  0  0
  165.8799   29.7403  201.2106 C   0  0  0  0  0  0  0  0  0  0  0  0
  165.7990   30.7946  200.1004 C   0  0  0  0  0  0  0  0  0  0  0  0
  164.3496   31.1244  199.7373 C   0  0  0  0  0  0  0  0  0  0  0  0
  163.7503   30.1770  198.6908 C   0  0  0  0  0  0  0  0  0  0  0  0
  164.2301   30.4459  197.2629 C   0  0  0  0  0  0  0  0  0  0  0  0
  163.4643   29.5976  196.2448 C   0  0  0  0  0  0  0  0  0  0  0  0
  163.2368   28.1795  196.7710 C   0  0  0  0  0  0  0  0  0  0  0  0
  164.2324   27.1869  196.1644 C   0  0  0  0  0  0  0  0  0  0  0  0
  165.0906   26.4984  197.2311 C   0  0  0  0  0  0  0  0  0  0  0  0
  164.3292   25.4340  198.0277 C   0  0  0  0  0  0  0  0  0  0  0  0
  162.8809   25.8348  198.3418 C   0  0  0  0  0  0  0  0  0  0  0  0
  162.6852   26.5830  199.6667 C   0  0  0  0  0  0  0  0  0  0  0  0
  161.2988   27.2181  199.8074 C   0  0  0  0  0  0  0  0  0  0  0  0
  161.1123   27.8527  201.1879 C   0  0  0  0  0  0  0  0  0  0  0  0
  159.7979   28.6266  201.3401 C   0  0  0  0  0  0  0  0  0  0  0  0
  158.9792   28.8291  200.0601 C   0  0  0  0  0  0  0  0  0  0  0  0
  158.8885   30.2885  199.6092 C   0  0  0  0  0  0  0  0  0  0  0  0
  160.1029   31.1280  200.0280 C   0  0  0  0  0  0  0  0  0  0  0  0
  160.6236   32.0469  198.9191 C   0  0  0  0  0  0  0  0  0  0  0  0
  161.2848   33.2997  199.4991 C   0  0  0  0  0  0  0  0  0  0  0  0
  161.0645   33.4562  201.0070 C   0  0  0  0  0  0  0  0  0  0  0  0
  162.3254   33.8620  201.7718 C   0  0  0  0  0  0  0  0  0  0  0  0
  162.0748   33.9214  203.2706 C   0  0  0  0  0  0  0  0  0  0  0  0
  1  2  1  0
  1  6  1  6
 30  1  1  0
  3  2  1  0
  2 32  1  6
  4  3  1  0
  3 29  1  6
  5  4  1  0
  4 28  1  1
  5 27  1  6
  5 30  1  0
  6 31  1  0
  8  7  1  0
  9  8  1  0
 10  9  1  0
 11 10  1  0
 12 11  1  0
 13 12  1  0
 14 13  1  0
 15 14  1  0
 16 15  1  0
 17 16  1  0
 18 17  1  0
 19 18  1  0
 20 19  1  0
 21 20  1  0
 21 22  1  6
 23 21  1  0
 23 24  1  6
 25 23  1  0
 25 26  1  1
 25 40  1  0
 26 27  1  0
 32 33  1  0
 33 34  1  0
 34 35  2  0
 34 39  1  0
 35 36  1  0
 36 37  2  0
 37 38  1  0
 38 39  2  0
 40 41  1  0
 41 42  2  0
 41 43  1  0
 43 44  1  0
 44 45  1  0
 45 46  1  0
 46 47  1  0
 47 48  1  0
 48 49  1  0
 49 50  1  0
 50 51  1  0
 51 52  1  0
 52 53  1  0
 53 54  1  0
 54 55  1  0
 55 56  1  0
 56 57  1  0
 57 58  1  0
 58 59  1  0
 59 60  1  0
 60 61  1  0
 61 62  1  0
 62 63  1  0
 63 64  1  0
 64 65  1  0
 65 66  1  0
 66 67  1  0
M  END
$$$$
