
     RDKit          3D

 67 68  0  0  0  0  0  0  0  0999 V2000
  173.1886   28.3679  208.9055 C   0  0  1  0  0  0  0  0  0  0  0  0
  174.0298   29.6546  208.8411 C   0  0  1  0  0  0  0  0  0  0  0  0
  173.9571   30.2202  207.4070 C   0  0  1  0  0  0  0  0  0  0  0  0
  172.6045   29.9547  206.7282 C   0  0  2  0  0  0  0  0  0  0  0  0
  171.5041   29.6977  207.7824 C   0  0  1  0  0  0  0  0  0  0  0  0
  173.2645   27.6731  210.2675 C   0  0  0  0  0  0  0  0  0  0  0  0
  152.9468   22.2074  211.5887 C   0  0  0  0  0  0  0  0  0  0  0  0
  154.3314   21.6630  211.2786 C   0  0  0  0  0  0  0  0  0  0  0  0
  155.2325   22.7308  210.6574 C   0  0  0  0  0  0  0  0  0  0  0  0
  156.6131   22.1634  210.3271 C   0  0  0  0  0  0  0  0  0  0  0  0
  157.4992   23.2014  209.6351 C   0  0  0  0  0  0  0  0  0  0  0  0
  158.9534   23.0761  210.0959 C   0  0  0  0  0  0  0  0  0  0  0  0
  159.9309   23.5180  209.0042 C   0  0  0  0  0  0  0  0  0  0  0  0
  159.5245   24.8397  208.3448 C   0  0  0  0  0  0  0  0  0  0  0  0
  160.6747   25.6656  207.7644 C   0  0  0  0  0  0  0  0  0  0  0  0
  161.6694   24.8256  206.9547 C   0  0  0  0  0  0  0  0  0  0  0  0
  162.4346   25.6966  205.9534 C   0  0  0  0  0  0  0  0  0  0  0  0
  163.9304   25.8175  206.2566 C   0  0  0  0  0  0  0  0  0  0  0  0
  164.4792   27.2414  206.3689 C   0  0  0  0  0  0  0  0  0  0  0  0
  165.7577   27.5096  205.5663 C   0  0  0  0  0  0  0  0  0  0  0  0
  166.2913   28.9337  205.8131 C   0  0  1  0  0  0  0  0  0  0  0  0
  165.2144   29.7646  206.2439 O   0  0  0  0  0  0  0  0  0  0  0  0
  167.4593   28.9703  206.8298 C   0  0  1  0  0  0  0  0  0  0  0  0
  166.9478   28.8918  208.1758 O   0  0  0  0  0  0  0  0  0  0  0  0
  168.4951   27.8273  206.6322 C   0  0  2  0  0  0  0  0  0  0  0  0
  169.8166   28.0885  207.3774 C   0  0  0  0  0  0  0  0  0  0  0  0
  170.2699   29.4200  207.1081 O   0  0  0  0  0  0  0  0  0  0  0  0
  172.7468   28.8013  205.8754 O   0  0  0  0  0  0  0  0  0  0  0  0
  174.2377   31.6263  207.4333 O   0  0  0  0  0  0  0  0  0  0  0  0
  171.7868   28.6031  208.6570 O   0  0  0  0  0  0  0  0  0  0  0  0
  172.0164   27.0452  210.5610 O   0  0  0  0  0  0  0  0  0  0  0  0
  173.4883   30.6565  209.7282 O   0  0  0  0  0  0  0  0  0  0  0  0
  173.5562   30.2934  211.1056 C   0  0  0  0  0  0  0  0  0  0  0  0
  174.9981   30.3620  211.5272 C   0  0  0  0  0  0  0  0  0  0  0  0
  175.9262   31.1060  210.7875 C   0  0  0  0  0  0  0  0  0  0  0  0
  177.2619   31.1765  211.1911 C   0  0  0  0  0  0  0  0  0  0  0  0
  177.6794   30.5081  212.3408 C   0  0  0  0  0  0  0  0  0  0  0  0
  176.7631   29.7742  213.0917 C   0  0  0  0  0  0  0  0  0  0  0  0
  175.4285   29.7049  212.6903 C   0  0  0  0  0  0  0  0  0  0  0  0
  168.7808   27.6295  205.2043 N   0  0  0  0  0  0  0  0  0  0  0  0
  167.8122   27.2275  204.3152 C   0  0  0  0  0  0  0  0  0  0  0  0
  166.9331   26.4219  204.5918 O   0  0  0  0  0  0  0  0  0  0  0  0
  167.9868   27.7822  202.9146 C   0  0  0  0  0  0  0  0  0  0  0  0
  168.0023   26.7148  201.8214 C   0  0  0  0  0  0  0  0  0  0  0  0
  166.7525   25.8290  201.8701 C   0  0  0  0  0  0  0  0  0  0  0  0
  166.7834   24.7257  200.8059 C   0  0  0  0  0  0  0  0  0  0  0  0
  165.5103   23.8774  200.8326 C   0  0  0  0  0  0  0  0  0  0  0  0
  164.6788   23.9813  199.5483 C   0  0  0  0  0  0  0  0  0  0  0  0
  165.1674   25.0587  198.5778 C   0  0  0  0  0  0  0  0  0  0  0  0
  164.7678   24.7375  197.1357 C   0  0  0  0  0  0  0  0  0  0  0  0
  163.5833   25.5961  196.6891 C   0  0  0  0  0  0  0  0  0  0  0  0
  163.8953   27.0907  196.8050 C   0  0  0  0  0  0  0  0  0  0  0  0
  162.8820   27.9568  196.0490 C   0  0  0  0  0  0  0  0  0  0  0  0
  163.3070   28.2717  194.6111 C   0  0  0  0  0  0  0  0  0  0  0  0
  163.6225   29.7570  194.3855 C   0  0  0  0  0  0  0  0  0  0  0  0
  163.3332   30.6731  195.5816 C   0  0  0  0  0  0  0  0  0  0  0  0
  162.7147   32.0163  195.1833 C   0  0  0  0  0  0  0  0  0  0  0  0
  162.9030   33.0658  196.2816 C   0  0  0  0  0  0  0  0  0  0  0  0
  161.9553   32.8903  197.4735 C   0  0  0  0  0  0  0  0  0  0  0  0
  161.4680   34.1784  198.1466 C   0  0  0  0  0  0  0  0  0  0  0  0
  160.5592   33.9387  199.3541 C   0  0  0  0  0  0  0  0  0  0  0  0
  160.0636   35.2367  200.0057 C   0  0  0  0  0  0  0  0  0  0  0  0
  158.6082   35.5739  199.6689 C   0  0  0  0  0  0  0  0  0  0  0  0
  158.0316   36.5954  200.6523 C   0  0  0  0  0  0  0  0  0  0  0  0
  156.7312   36.1294  201.3146 C   0  0  0  0  0  0  0  0  0  0  0  0
  155.4758   36.4818  200.5151 C   0  0  0  0  0  0  0  0  0  0  0  0
  154.5840   37.4518  201.2745 C   0  0  0  0  0  0  0  0  0  0  0  0
  1  2  1  0
  1  6  1  1
 30  1  1  0
  3  2  1  0
  2 32  1  1
  4  3  1  0
  3 29  1  1
  5  4  1  0
  4 28  1  6
  5 27  1  6
  5 30  1  0
  6 31  1  0
  8  7  1  0
  9  8  1  0
 10  9  1  0
 11 10  1  0
 12 11  1  0
 13 12  1  0
 14 13  1  0
 15 14  1  0
 16 15  1  0
 17 16  1  0
 18 17  1  0
 19 18  1  0
 20 19  1  0
 21 20  1  0
 21 22  1  1
 23 21  1  0
 23 24  1  1
 25 23  1  0
 25 26  1  1
 25 40  1  0
 26 27  1  0
 32 33  1  0
 33 34  1  0
 34 35  2  0
 34 39  1  0
 35 36  1  0
 36 37  2  0
 37 38  1  0
 38 39  2  0
 40 41  1  0
 41 42  2  0
 41 43  1  0
 43 44  1  0
 44 45  1  0
 45 46  1  0
 46 47  1  0
 47 48  1  0
 48 49  1  0
 49 50  1  0
 50 51  1  0
 51 52  1  0
 52 53  1  0
 53 54  1  0
 54 55  1  0
 55 56  1  0
 56 57  1  0
 57 58  1  0
 58 59  1  0
 59 60  1  0
 60 61  1  0
 61 62  1  0
 62 63  1  0
 63 64  1  0
 64 65  1  0
 65 66  1  0
 66 67  1  0
M  END
$$$$
