
     RDKit          3D

 67 68  0  0  0  0  0  0  0  0999 V2000
  172.0560   26.2833  206.7882 C   0  0  1  0  0  0  0  0  0  0  0  0
  173.4404   26.9527  206.8402 C   0  0  1  0  0  0  0  0  0  0  0  0
  173.4440   28.1544  205.8717 C   0  0  1  0  0  0  0  0  0  0  0  0
  172.0757   28.8466  205.7742 C   0  0  2  0  0  0  0  0  0  0  0  0
  171.2187   28.5439  207.0240 C   0  0  1  0  0  0  0  0  0  0  0  0
  171.9715   25.0202  207.6490 C   0  0  0  0  0  0  0  0  0  0  0  0
  163.3691   39.8507  201.3840 C   0  0  0  0  0  0  0  0  0  0  0  0
  162.5039   39.1360  200.3592 C   0  0  0  0  0  0  0  0  0  0  0  0
  162.4767   37.6258  200.5972 C   0  0  0  0  0  0  0  0  0  0  0  0
  161.7183   36.9053  199.4824 C   0  0  0  0  0  0  0  0  0  0  0  0
  161.2570   35.5138  199.9214 C   0  0  0  0  0  0  0  0  0  0  0  0
  161.2701   34.5348  198.7450 C   0  0  0  0  0  0  0  0  0  0  0  0
  162.6091   33.8015  198.6365 C   0  0  0  0  0  0  0  0  0  0  0  0
  162.4727   32.2877  198.8280 C   0  0  0  0  0  0  0  0  0  0  0  0
  163.5888   31.4437  198.2085 C   0  0  0  0  0  0  0  0  0  0  0  0
  164.9230   31.5713  198.9530 C   0  0  0  0  0  0  0  0  0  0  0  0
  164.7231   31.4250  200.4648 C   0  0  0  0  0  0  0  0  0  0  0  0
  166.0263   31.4681  201.2672 C   0  0  0  0  0  0  0  0  0  0  0  0
  165.8907   31.2685  202.7782 C   0  0  0  0  0  0  0  0  0  0  0  0
  166.5803   30.0161  203.3320 C   0  0  0  0  0  0  0  0  0  0  0  0
  166.2847   29.8252  204.8320 C   0  0  1  0  0  0  0  0  0  0  0  0
  165.4659   28.6689  205.0003 O   0  0  0  0  0  0  0  0  0  0  0  0
  167.5705   29.7222  205.6898 C   0  0  1  0  0  0  0  0  0  0  0  0
  167.6588   30.8469  206.5881 O   0  0  0  0  0  0  0  0  0  0  0  0
  167.6577   28.4166  206.5298 C   0  0  2  0  0  0  0  0  0  0  0  0
  168.8954   28.3809  207.4446 C   0  0  0  0  0  0  0  0  0  0  0  0
  169.9412   29.1773  206.8764 O   0  0  0  0  0  0  0  0  0  0  0  0
  171.4086   28.3620  204.5919 O   0  0  0  0  0  0  0  0  0  0  0  0
  174.4521   29.0907  206.2760 O   0  0  0  0  0  0  0  0  0  0  0  0
  170.9981   27.1496  207.2489 O   0  0  0  0  0  0  0  0  0  0  0  0
  171.7258   25.3769  209.0094 O   0  0  0  0  0  0  0  0  0  0  0  0
  173.7042   27.4645  208.1640 O   0  0  0  0  0  0  0  0  0  0  0  0
  174.7429   26.7661  208.8475 C   0  0  0  0  0  0  0  0  0  0  0  0
  175.5881   27.7852  209.5607 C   0  0  0  0  0  0  0  0  0  0  0  0
  176.5641   28.5157  208.8708 C   0  0  0  0  0  0  0  0  0  0  0  0
  177.3378   29.4702  209.5360 C   0  0  0  0  0  0  0  0  0  0  0  0
  177.1379   29.7061  210.8951 C   0  0  0  0  0  0  0  0  0  0  0  0
  176.1620   28.9941  211.5898 C   0  0  0  0  0  0  0  0  0  0  0  0
  175.3877   28.0419  210.9258 C   0  0  0  0  0  0  0  0  0  0  0  0
  167.6755   27.2375  205.6527 N   0  0  0  0  0  0  0  0  0  0  0  0
  167.1053   26.0430  206.0243 C   0  0  0  0  0  0  0  0  0  0  0  0
  166.3967   25.9109  207.0136 O   0  0  0  0  0  0  0  0  0  0  0  0
  167.5189   24.8640  205.1646 C   0  0  0  0  0  0  0  0  0  0  0  0
  166.8017   23.5603  205.5119 C   0  0  0  0  0  0  0  0  0  0  0  0
  167.2520   23.0041  206.8671 C   0  0  0  0  0  0  0  0  0  0  0  0
  166.5551   21.6824  207.2106 C   0  0  0  0  0  0  0  0  0  0  0  0
  167.0521   21.1087  208.5391 C   0  0  0  0  0  0  0  0  0  0  0  0
  166.4166   19.7603  208.8993 C   0  0  0  0  0  0  0  0  0  0  0  0
  166.9655   19.1391  210.1855 C   0  0  0  0  0  0  0  0  0  0  0  0
  165.8375   18.7052  211.1246 C   0  0  0  0  0  0  0  0  0  0  0  0
  164.6505   18.1478  210.3372 C   0  0  0  0  0  0  0  0  0  0  0  0
  163.5268   17.6813  211.2668 C   0  0  0  0  0  0  0  0  0  0  0  0
  162.1993   18.3894  210.9758 C   0  0  0  0  0  0  0  0  0  0  0  0
  161.0489   17.4224  210.6781 C   0  0  0  0  0  0  0  0  0  0  0  0
  159.8629   18.0931  209.9709 C   0  0  0  0  0  0  0  0  0  0  0  0
  159.4422   19.4500  210.5500 C   0  0  0  0  0  0  0  0  0  0  0  0
  158.1509   19.9990  209.9366 C   0  0  0  0  0  0  0  0  0  0  0  0
  157.9766   21.4889  210.2419 C   0  0  0  0  0  0  0  0  0  0  0  0
  157.1010   21.7704  211.4682 C   0  0  0  0  0  0  0  0  0  0  0  0
  156.1493   22.9674  211.3602 C   0  0  0  0  0  0  0  0  0  0  0  0
  155.3360   23.2264  212.6302 C   0  0  0  0  0  0  0  0  0  0  0  0
  156.0420   24.1617  213.6209 C   0  0  0  0  0  0  0  0  0  0  0  0
  156.4524   23.4738  214.9261 C   0  0  0  0  0  0  0  0  0  0  0  0
  155.4052   22.4487  215.3682 C   0  0  0  0  0  0  0  0  0  0  0  0
  155.1230   22.4836  216.8736 C   0  0  0  0  0  0  0  0  0  0  0  0
  155.4838   21.1841  217.5950 C   0  0  0  0  0  0  0  0  0  0  0  0
  155.2953   21.3092  219.0989 C   0  0  0  0  0  0  0  0  0  0  0  0
  1  2  1  0
  1  6  1  1
 30  1  1  0
  3  2  1  0
  2 32  1  1
  4  3  1  0
  3 29  1  1
  5  4  1  0
  4 28  1  6
  5 27  1  6
  5 30  1  0
  6 31  1  0
  8  7  1  0
  9  8  1  0
 10  9  1  0
 11 10  1  0
 12 11  1  0
 13 12  1  0
 14 13  1  0
 15 14  1  0
 16 15  1  0
 17 16  1  0
 18 17  1  0
 19 18  1  0
 20 19  1  0
 21 20  1  0
 21 22  1  6
 23 21  1  0
 23 24  1  1
 25 23  1  0
 25 26  1  6
 25 40  1  0
 26 27  1  0
 32 33  1  0
 33 34  1  0
 34 35  2  0
 34 39  1  0
 35 36  1  0
 36 37  2  0
 37 38  1  0
 38 39  2  0
 40 41  1  0
 41 42  2  0
 41 43  1  0
 43 44  1  0
 44 45  1  0
 45 46  1  0
 46 47  1  0
 47 48  1  0
 48 49  1  0
 49 50  1  0
 50 51  1  0
 51 52  1  0
 52 53  1  0
 53 54  1  0
 54 55  1  0
 55 56  1  0
 56 57  1  0
 57 58  1  0
 58 59  1  0
 59 60  1  0
 60 61  1  0
 61 62  1  0
 62 63  1  0
 63 64  1  0
 64 65  1  0
 65 66  1  0
 66 67  1  0
M  END
$$$$
