
     RDKit          3D

 67 68  0  0  0  0  0  0  0  0999 V2000
  169.9141   29.2163  207.9350 C   0  0  1  0  0  0  0  0  0  0  0  0
  171.3393   29.7051  208.2467 C   0  0  1  0  0  0  0  0  0  0  0  0
  171.6720   30.8854  207.3095 C   0  0  1  0  0  0  0  0  0  0  0  0
  170.4436   31.7446  206.9723 C   0  0  2  0  0  0  0  0  0  0  0  0
  169.3416   31.5675  208.0410 C   0  0  1  0  0  0  0  0  0  0  0  0
  169.5143   27.9841  208.7509 C   0  0  0  0  0  0  0  0  0  0  0  0
  166.8445   33.4754  191.7423 C   0  0  0  0  0  0  0  0  0  0  0  0
  165.3965   33.7925  192.0774 C   0  0  0  0  0  0  0  0  0  0  0  0
  164.7792   32.7257  192.9826 C   0  0  0  0  0  0  0  0  0  0  0  0
  163.3604   33.1115  193.4013 C   0  0  0  0  0  0  0  0  0  0  0  0
  162.8394   32.2125  194.5247 C   0  0  0  0  0  0  0  0  0  0  0  0
  162.6248   33.0118  195.8123 C   0  0  0  0  0  0  0  0  0  0  0  0
  162.3087   32.0969  196.9978 C   0  0  0  0  0  0  0  0  0  0  0  0
  162.1373   32.8669  198.3111 C   0  0  0  0  0  0  0  0  0  0  0  0
  161.6692   32.0328  199.5057 C   0  0  0  0  0  0  0  0  0  0  0  0
  162.8049   31.6759  200.4719 C   0  0  0  0  0  0  0  0  0  0  0  0
  162.8452   30.1676  200.7371 C   0  0  0  0  0  0  0  0  0  0  0  0
  164.2613   29.6027  200.8771 C   0  0  0  0  0  0  0  0  0  0  0  0
  164.5307   28.7712  202.1329 C   0  0  0  0  0  0  0  0  0  0  0  0
  165.8496   29.0853  202.8489 C   0  0  0  0  0  0  0  0  0  0  0  0
  165.6493   30.1188  203.9740 C   0  0  1  0  0  0  0  0  0  0  0  0
  164.8164   29.5504  204.9834 O   0  0  0  0  0  0  0  0  0  0  0  0
  166.9862   30.6183  204.5763 C   0  0  1  0  0  0  0  0  0  0  0  0
  167.6229   31.5431  203.6714 O   0  0  0  0  0  0  0  0  0  0  0  0
  166.8270   31.3156  205.9571 C   0  0  2  0  0  0  0  0  0  0  0  0
  167.9690   32.3028  206.2587 C   0  0  0  0  0  0  0  0  0  0  0  0
  168.2034   32.3562  207.6705 O   0  0  0  0  0  0  0  0  0  0  0  0
  169.9474   31.3350  205.6824 O   0  0  0  0  0  0  0  0  0  0  0  0
  172.7001   31.6907  207.9020 O   0  0  0  0  0  0  0  0  0  0  0  0
  168.9086   30.2152  208.2053 O   0  0  0  0  0  0  0  0  0  0  0  0
  169.1054   28.3818  210.0596 O   0  0  0  0  0  0  0  0  0  0  0  0
  171.4199   30.1945  209.6024 O   0  0  0  0  0  0  0  0  0  0  0  0
  172.7063   30.0233  210.1936 C   0  0  0  0  0  0  0  0  0  0  0  0
  172.7329   28.6703  210.8498 C   0  0  0  0  0  0  0  0  0  0  0  0
  173.8001   27.7895  210.6324 C   0  0  0  0  0  0  0  0  0  0  0  0
  173.8256   26.5389  211.2548 C   0  0  0  0  0  0  0  0  0  0  0  0
  172.7869   26.1611  212.1039 C   0  0  0  0  0  0  0  0  0  0  0  0
  171.7253   27.0332  212.3373 C   0  0  0  0  0  0  0  0  0  0  0  0
  171.7001   28.2832  211.7176 C   0  0  0  0  0  0  0  0  0  0  0  0
  166.7575   30.3189  207.0348 N   0  0  0  0  0  0  0  0  0  0  0  0
  166.0173   29.1663  206.9162 C   0  0  0  0  0  0  0  0  0  0  0  0
  166.2968   28.2600  206.1424 O   0  0  0  0  0  0  0  0  0  0  0  0
  164.7498   29.1545  207.7488 C   0  0  0  0  0  0  0  0  0  0  0  0
  163.7104   28.1359  207.2833 C   0  0  0  0  0  0  0  0  0  0  0  0
  164.2645   26.7070  207.2977 C   0  0  0  0  0  0  0  0  0  0  0  0
  163.1635   25.6574  207.1061 C   0  0  0  0  0  0  0  0  0  0  0  0
  162.9669   24.8072  208.3630 C   0  0  0  0  0  0  0  0  0  0  0  0
  161.8506   23.7644  208.2278 C   0  0  0  0  0  0  0  0  0  0  0  0
  161.2930   23.2747  209.5660 C   0  0  0  0  0  0  0  0  0  0  0  0
  160.2204   22.2011  209.3676 C   0  0  0  0  0  0  0  0  0  0  0  0
  160.5515   20.9391  210.1660 C   0  0  0  0  0  0  0  0  0  0  0  0
  160.0174   21.0223  211.5986 C   0  0  0  0  0  0  0  0  0  0  0  0
  160.9834   20.4064  212.6164 C   0  0  0  0  0  0  0  0  0  0  0  0
  161.1166   18.8860  212.4827 C   0  0  0  0  0  0  0  0  0  0  0  0
  160.0100   18.1152  213.2162 C   0  0  0  0  0  0  0  0  0  0  0  0
  160.2086   16.5953  213.2812 C   0  0  0  0  0  0  0  0  0  0  0  0
  161.6740   16.1798  213.4400 C   0  0  0  0  0  0  0  0  0  0  0  0
  161.9577   15.6601  214.8516 C   0  0  0  0  0  0  0  0  0  0  0  0
  161.5519   14.1975  215.0651 C   0  0  0  0  0  0  0  0  0  0  0  0
  160.8520   13.5100  213.8872 C   0  0  0  0  0  0  0  0  0  0  0  0
  159.8174   12.4642  214.3084 C   0  0  0  0  0  0  0  0  0  0  0  0
  159.2125   11.6997  213.1232 C   0  0  0  0  0  0  0  0  0  0  0  0
  159.7965   10.2961  212.9380 C   0  0  0  0  0  0  0  0  0  0  0  0
  159.1922    9.3057  213.9363 C   0  0  0  0  0  0  0  0  0  0  0  0
  160.2043    8.2815  214.4596 C   0  0  0  0  0  0  0  0  0  0  0  0
  160.0631    7.9889  215.9543 C   0  0  0  0  0  0  0  0  0  0  0  0
  161.1111    6.9949  216.4303 C   0  0  0  0  0  0  0  0  0  0  0  0
  1  2  1  0
  1  6  1  1
 30  1  1  0
  3  2  1  0
  2 32  1  1
  4  3  1  0
  3 29  1  1
  5  4  1  0
  4 28  1  6
  5 27  1  6
  5 30  1  0
  6 31  1  0
  8  7  1  0
  9  8  1  0
 10  9  1  0
 11 10  1  0
 12 11  1  0
 13 12  1  0
 14 13  1  0
 15 14  1  0
 16 15  1  0
 17 16  1  0
 18 17  1  0
 19 18  1  0
 20 19  1  0
 21 20  1  0
 21 22  1  1
 23 21  1  0
 23 24  1  6
 25 23  1  0
 25 26  1  1
 25 40  1  0
 26 27  1  0
 32 33  1  0
 33 34  1  0
 34 35  2  0
 34 39  1  0
 35 36  1  0
 36 37  2  0
 37 38  1  0
 38 39  2  0
 40 41  1  0
 41 42  2  0
 41 43  1  0
 43 44  1  0
 44 45  1  0
 45 46  1  0
 46 47  1  0
 47 48  1  0
 48 49  1  0
 49 50  1  0
 50 51  1  0
 51 52  1  0
 52 53  1  0
 53 54  1  0
 54 55  1  0
 55 56  1  0
 56 57  1  0
 57 58  1  0
 58 59  1  0
 59 60  1  0
 60 61  1  0
 61 62  1  0
 62 63  1  0
 63 64  1  0
 64 65  1  0
 65 66  1  0
 66 67  1  0
M  END
$$$$
