
     RDKit          3D

 67 68  0  0  0  0  0  0  0  0999 V2000
  172.0914   28.2401  209.4103 C   0  0  1  0  0  0  0  0  0  0  0  0
  173.5708   27.9083  209.1486 C   0  0  1  0  0  0  0  0  0  0  0  0
  173.8893   28.2082  207.6685 C   0  0  1  0  0  0  0  0  0  0  0  0
  173.0869   29.3955  207.1139 C   0  0  2  0  0  0  0  0  0  0  0  0
  172.5999   30.3103  208.2602 C   0  0  1  0  0  0  0  0  0  0  0  0
  171.6449   27.8932  210.8329 C   0  0  0  0  0  0  0  0  0  0  0  0
  172.7157   46.9600  201.9718 C   0  0  0  0  0  0  0  0  0  0  0  0
  172.3663   46.2920  200.6523 C   0  0  0  0  0  0  0  0  0  0  0  0
  171.4969   45.0513  200.8597 C   0  0  0  0  0  0  0  0  0  0  0  0
  171.3674   44.2461  199.5666 C   0  0  0  0  0  0  0  0  0  0  0  0
  170.5224   42.9864  199.7682 C   0  0  0  0  0  0  0  0  0  0  0  0
  171.3546   41.7238  199.5317 C   0  0  0  0  0  0  0  0  0  0  0  0
  170.4672   40.5013  199.2860 C   0  0  0  0  0  0  0  0  0  0  0  0
  169.7887   39.9954  200.5630 C   0  0  0  0  0  0  0  0  0  0  0  0
  170.1450   38.5652  200.9742 C   0  0  0  0  0  0  0  0  0  0  0  0
  169.0664   37.9016  201.8385 C   0  0  0  0  0  0  0  0  0  0  0  0
  169.6970   37.0097  202.9127 C   0  0  0  0  0  0  0  0  0  0  0  0
  168.7162   36.5674  204.0020 C   0  0  0  0  0  0  0  0  0  0  0  0
  169.2537   35.5587  205.0192 C   0  0  0  0  0  0  0  0  0  0  0  0
  168.2462   35.1117  206.0849 C   0  0  0  0  0  0  0  0  0  0  0  0
  168.8683   34.0920  207.0581 C   0  0  1  0  0  0  0  0  0  0  0  0
  167.8288   33.4951  207.8320 O   0  0  0  0  0  0  0  0  0  0  0  0
  169.7122   33.0111  206.3377 C   0  0  1  0  0  0  0  0  0  0  0  0
  171.1117   33.3537  206.3967 O   0  0  0  0  0  0  0  0  0  0  0  0
  169.5324   31.5833  206.9270 C   0  0  2  0  0  0  0  0  0  0  0  0
  170.4610   31.3143  208.1250 C   0  0  0  0  0  0  0  0  0  0  0  0
  171.8279   31.3823  207.7036 O   0  0  0  0  0  0  0  0  0  0  0  0
  171.9564   28.8751  206.3866 O   0  0  0  0  0  0  0  0  0  0  0  0
  175.2966   28.4409  207.5203 O   0  0  0  0  0  0  0  0  0  0  0  0
  171.7919   29.6401  209.2302 O   0  0  0  0  0  0  0  0  0  0  0  0
  170.2597   27.5476  210.8350 O   0  0  0  0  0  0  0  0  0  0  0  0
  174.4264   28.7479  209.9529 O   0  0  0  0  0  0  0  0  0  0  0  0
  175.0848   28.0466  211.0057 C   0  0  0  0  0  0  0  0  0  0  0  0
  174.2961   26.7977  211.2880 C   0  0  0  0  0  0  0  0  0  0  0  0
  174.6447   25.5798  210.6904 C   0  0  0  0  0  0  0  0  0  0  0  0
  173.9160   24.4200  210.9662 C   0  0  0  0  0  0  0  0  0  0  0  0
  172.8362   24.4675  211.8463 C   0  0  0  0  0  0  0  0  0  0  0  0
  172.4867   25.6708  212.4561 C   0  0  0  0  0  0  0  0  0  0  0  0
  173.2152   26.8292  212.1826 C   0  0  0  0  0  0  0  0  0  0  0  0
  169.7726   30.5642  205.8957 N   0  0  0  0  0  0  0  0  0  0  0  0
  168.9950   29.4353  205.7903 C   0  0  0  0  0  0  0  0  0  0  0  0
  169.2407   28.5145  205.0221 O   0  0  0  0  0  0  0  0  0  0  0  0
  167.7326   29.4708  206.6299 C   0  0  0  0  0  0  0  0  0  0  0  0
  166.7258   28.3746  206.2842 C   0  0  0  0  0  0  0  0  0  0  0  0
  167.0458   27.0582  207.0009 C   0  0  0  0  0  0  0  0  0  0  0  0
  166.0887   26.7871  208.1675 C   0  0  0  0  0  0  0  0  0  0  0  0
  166.3910   25.4508  208.8490 C   0  0  0  0  0  0  0  0  0  0  0  0
  165.4167   25.1079  209.9825 C   0  0  0  0  0  0  0  0  0  0  0  0
  165.3526   23.6159  210.3161 C   0  0  0  0  0  0  0  0  0  0  0  0
  164.4770   22.8551  209.3176 C   0  0  0  0  0  0  0  0  0  0  0  0
  164.3694   21.3768  209.6957 C   0  0  0  0  0  0  0  0  0  0  0  0
  164.0842   20.5016  208.4721 C   0  0  0  0  0  0  0  0  0  0  0  0
  163.2042   19.2941  208.8129 C   0  0  0  0  0  0  0  0  0  0  0  0
  161.9360   19.6673  209.5872 C   0  0  0  0  0  0  0  0  0  0  0  0
  161.0235   18.4653  209.8685 C   0  0  0  0  0  0  0  0  0  0  0  0
  160.8970   18.0759  211.3470 C   0  0  0  0  0  0  0  0  0  0  0  0
  159.5961   18.5599  211.9941 C   0  0  0  0  0  0  0  0  0  0  0  0
  158.4358   17.6066  211.6969 C   0  0  0  0  0  0  0  0  0  0  0  0
  157.1293   17.9836  212.4043 C   0  0  0  0  0  0  0  0  0  0  0  0
  155.9467   17.0309  212.1950 C   0  0  0  0  0  0  0  0  0  0  0  0
  154.6378   17.5257  212.8141 C   0  0  0  0  0  0  0  0  0  0  0  0
  153.4033   17.1951  211.9646 C   0  0  0  0  0  0  0  0  0  0  0  0
  152.0834   17.6319  212.6069 C   0  0  0  0  0  0  0  0  0  0  0  0
  151.3266   18.6148  211.7103 C   0  0  0  0  0  0  0  0  0  0  0  0
  149.9626   19.0223  212.2764 C   0  0  0  0  0  0  0  0  0  0  0  0
  149.2493   20.0911  211.4468 C   0  0  0  0  0  0  0  0  0  0  0  0
  149.0602   21.3771  212.2364 C   0  0  0  0  0  0  0  0  0  0  0  0
  1  2  1  0
  1  6  1  1
 30  1  1  0
  3  2  1  0
  2 32  1  1
  4  3  1  0
  3 29  1  1
  5  4  1  0
  4 28  1  1
  5 27  1  6
  5 30  1  0
  6 31  1  0
  8  7  1  0
  9  8  1  0
 10  9  1  0
 11 10  1  0
 12 11  1  0
 13 12  1  0
 14 13  1  0
 15 14  1  0
 16 15  1  0
 17 16  1  0
 18 17  1  0
 19 18  1  0
 20 19  1  0
 21 20  1  0
 21 22  1  6
 23 21  1  0
 23 24  1  1
 25 23  1  0
 25 26  1  1
 25 40  1  0
 26 27  1  0
 32 33  1  0
 33 34  1  0
 34 35  2  0
 34 39  1  0
 35 36  1  0
 36 37  2  0
 37 38  1  0
 38 39  2  0
 40 41  1  0
 41 42  2  0
 41 43  1  0
 43 44  1  0
 44 45  1  0
 45 46  1  0
 46 47  1  0
 47 48  1  0
 48 49  1  0
 49 50  1  0
 50 51  1  0
 51 52  1  0
 52 53  1  0
 53 54  1  0
 54 55  1  0
 55 56  1  0
 56 57  1  0
 57 58  1  0
 58 59  1  0
 59 60  1  0
 60 61  1  0
 61 62  1  0
 62 63  1  0
 63 64  1  0
 64 65  1  0
 65 66  1  0
 66 67  1  0
M  END
$$$$
