
     RDKit          3D

 67 68  0  0  0  0  0  0  0  0999 V2000
  171.1879   27.5510  209.8313 C   0  0  1  0  0  0  0  0  0  0  0  0
  170.7423   26.3239  210.6455 C   0  0  1  0  0  0  0  0  0  0  0  0
  169.2019   26.2379  210.6051 C   0  0  1  0  0  0  0  0  0  0  0  0
  168.6102   26.7438  209.2804 C   0  0  2  0  0  0  0  0  0  0  0  0
  169.6666   26.6917  208.1537 C   0  0  1  0  0  0  0  0  0  0  0  0
  172.7004   27.7822  209.8801 C   0  0  0  0  0  0  0  0  0  0  0  0
  159.9755   30.7654  191.6498 C   0  0  0  0  0  0  0  0  0  0  0  0
  160.0447   29.8740  192.8788 C   0  0  0  0  0  0  0  0  0  0  0  0
  160.8659   30.5163  193.9975 C   0  0  0  0  0  0  0  0  0  0  0  0
  161.1413   29.5183  195.1223 C   0  0  0  0  0  0  0  0  0  0  0  0
  161.4284   30.2268  196.4478 C   0  0  0  0  0  0  0  0  0  0  0  0
  161.6525   29.2146  197.5739 C   0  0  0  0  0  0  0  0  0  0  0  0
  162.7754   29.6574  198.5149 C   0  0  0  0  0  0  0  0  0  0  0  0
  162.9100   28.7525  199.7437 C   0  0  0  0  0  0  0  0  0  0  0  0
  163.8521   29.2633  200.8360 C   0  0  0  0  0  0  0  0  0  0  0  0
  163.2380   29.1967  202.2393 C   0  0  0  0  0  0  0  0  0  0  0  0
  163.6090   30.4364  203.0592 C   0  0  0  0  0  0  0  0  0  0  0  0
  165.1126   30.5876  203.3043 C   0  0  0  0  0  0  0  0  0  0  0  0
  165.5386   31.8017  204.1325 C   0  0  0  0  0  0  0  0  0  0  0  0
  166.5011   31.4953  205.2860 C   0  0  0  0  0  0  0  0  0  0  0  0
  167.8089   30.8595  204.7768 C   0  0  1  0  0  0  0  0  0  0  0  0
  168.7766   31.8881  204.5736 O   0  0  0  0  0  0  0  0  0  0  0  0
  168.3555   29.7656  205.7275 C   0  0  1  0  0  0  0  0  0  0  0  0
  168.7325   30.3498  206.9909 O   0  0  0  0  0  0  0  0  0  0  0  0
  167.3456   28.6153  206.0018 C   0  0  2  0  0  0  0  0  0  0  0  0
  167.7705   27.7210  207.1806 C   0  0  0  0  0  0  0  0  0  0  0  0
  169.0856   27.2042  206.9475 O   0  0  0  0  0  0  0  0  0  0  0  0
  168.1656   28.1011  209.4746 O   0  0  0  0  0  0  0  0  0  0  0  0
  168.7922   24.8862  210.8536 O   0  0  0  0  0  0  0  0  0  0  0  0
  170.8465   27.4485  208.4330 O   0  0  0  0  0  0  0  0  0  0  0  0
  173.2609   27.5961  208.5803 O   0  0  0  0  0  0  0  0  0  0  0  0
  171.2579   25.1118  210.0547 O   0  0  0  0  0  0  0  0  0  0  0  0
  171.3215   24.0169  210.9663 C   0  0  0  0  0  0  0  0  0  0  0  0
  172.6362   24.1000  211.6916 C   0  0  0  0  0  0  0  0  0  0  0  0
  172.7372   24.7708  212.9172 C   0  0  0  0  0  0  0  0  0  0  0  0
  173.9585   24.8339  213.5927 C   0  0  0  0  0  0  0  0  0  0  0  0
  175.0877   24.2220  213.0510 C   0  0  0  0  0  0  0  0  0  0  0  0
  174.9974   23.5417  211.8382 C   0  0  0  0  0  0  0  0  0  0  0  0
  173.7775   23.4766  211.1638 C   0  0  0  0  0  0  0  0  0  0  0  0
  167.1744   27.7810  204.8042 N   0  0  0  0  0  0  0  0  0  0  0  0
  166.1664   26.8518  204.7002 C   0  0  0  0  0  0  0  0  0  0  0  0
  165.3805   26.6028  205.6051 O   0  0  0  0  0  0  0  0  0  0  0  0
  166.1743   26.0706  203.4004 C   0  0  0  0  0  0  0  0  0  0  0  0
  164.9118   26.2523  202.5590 C   0  0  0  0  0  0  0  0  0  0  0  0
  164.9466   25.4004  201.2854 C   0  0  0  0  0  0  0  0  0  0  0  0
  163.8175   24.3638  201.2516 C   0  0  0  0  0  0  0  0  0  0  0  0
  163.7463   23.5616  202.5526 C   0  0  0  0  0  0  0  0  0  0  0  0
  162.3135   23.3002  203.0326 C   0  0  0  0  0  0  0  0  0  0  0  0
  162.1794   22.0865  203.9549 C   0  0  0  0  0  0  0  0  0  0  0  0
  161.4416   22.4433  205.2475 C   0  0  0  0  0  0  0  0  0  0  0  0
  161.6853   21.3890  206.3286 C   0  0  0  0  0  0  0  0  0  0  0  0
  162.6113   21.9140  207.4293 C   0  0  0  0  0  0  0  0  0  0  0  0
  161.9107   22.9214  208.3474 C   0  0  0  0  0  0  0  0  0  0  0  0
  162.7806   23.3768  209.5234 C   0  0  0  0  0  0  0  0  0  0  0  0
  162.1261   24.4786  210.3686 C   0  0  0  0  0  0  0  0  0  0  0  0
  163.0815   25.2434  211.2939 C   0  0  0  0  0  0  0  0  0  0  0  0
  162.8931   24.9057  212.7757 C   0  0  0  0  0  0  0  0  0  0  0  0
  163.7294   25.8253  213.6691 C   0  0  0  0  0  0  0  0  0  0  0  0
  163.5080   25.5989  215.1688 C   0  0  0  0  0  0  0  0  0  0  0  0
  164.6544   26.0226  216.0941 C   0  0  0  0  0  0  0  0  0  0  0  0
  165.9084   26.4876  215.3508 C   0  0  0  0  0  0  0  0  0  0  0  0
  165.9616   28.0074  215.1452 C   0  0  0  0  0  0  0  0  0  0  0  0
  167.0494   28.6993  215.9718 C   0  0  0  0  0  0  0  0  0  0  0  0
  166.7614   30.1943  216.1305 C   0  0  0  0  0  0  0  0  0  0  0  0
  167.1946   30.7522  217.4899 C   0  0  0  0  0  0  0  0  0  0  0  0
  166.0599   31.4203  218.2681 C   0  0  0  0  0  0  0  0  0  0  0  0
  166.5368   31.9398  219.6156 C   0  0  0  0  0  0  0  0  0  0  0  0
  1  2  1  0
  1  6  1  6
 30  1  1  0
  3  2  1  0
  2 32  1  6
  4  3  1  0
  3 29  1  6
  5  4  1  0
  4 28  1  1
  5 27  1  6
  5 30  1  0
  6 31  1  0
  8  7  1  0
  9  8  1  0
 10  9  1  0
 11 10  1  0
 12 11  1  0
 13 12  1  0
 14 13  1  0
 15 14  1  0
 16 15  1  0
 17 16  1  0
 18 17  1  0
 19 18  1  0
 20 19  1  0
 21 20  1  0
 21 22  1  1
 23 21  1  0
 23 24  1  1
 25 23  1  0
 25 26  1  1
 25 40  1  0
 26 27  1  0
 32 33  1  0
 33 34  1  0
 34 35  2  0
 34 39  1  0
 35 36  1  0
 36 37  2  0
 37 38  1  0
 38 39  2  0
 40 41  1  0
 41 42  2  0
 41 43  1  0
 43 44  1  0
 44 45  1  0
 45 46  1  0
 46 47  1  0
 47 48  1  0
 48 49  1  0
 49 50  1  0
 50 51  1  0
 51 52  1  0
 52 53  1  0
 53 54  1  0
 54 55  1  0
 55 56  1  0
 56 57  1  0
 57 58  1  0
 58 59  1  0
 59 60  1  0
 60 61  1  0
 61 62  1  0
 62 63  1  0
 63 64  1  0
 64 65  1  0
 65 66  1  0
 66 67  1  0
M  END
$$$$
