
     RDKit          3D

 67 68  0  0  0  0  0  0  0  0999 V2000
  173.2445   31.0893  207.0094 C   0  0  1  0  0  0  0  0  0  0  0  0
  173.8234   32.3919  206.4302 C   0  0  1  0  0  0  0  0  0  0  0  0
  173.2932   32.5706  204.9918 C   0  0  1  0  0  0  0  0  0  0  0  0
  171.8717   32.0176  204.8065 C   0  0  2  0  0  0  0  0  0  0  0  0
  171.1368   31.9310  206.1632 C   0  0  1  0  0  0  0  0  0  0  0  0
  173.7799   30.7683  208.4073 C   0  0  0  0  0  0  0  0  0  0  0  0
  160.6338   32.0879  193.1044 C   0  0  0  0  0  0  0  0  0  0  0  0
  160.5808   30.8020  193.9127 C   0  0  0  0  0  0  0  0  0  0  0  0
  160.1790   31.0634  195.3649 C   0  0  0  0  0  0  0  0  0  0  0  0
  160.1378   29.7634  196.1682 C   0  0  0  0  0  0  0  0  0  0  0  0
  161.2273   29.7288  197.2422 C   0  0  0  0  0  0  0  0  0  0  0  0
  161.1635   28.4284  198.0469 C   0  0  0  0  0  0  0  0  0  0  0  0
  160.4949   28.6393  199.4074 C   0  0  0  0  0  0  0  0  0  0  0  0
  161.1367   27.8028  200.5189 C   0  0  0  0  0  0  0  0  0  0  0  0
  162.5322   28.2526  200.9573 C   0  0  0  0  0  0  0  0  0  0  0  0
  162.9130   29.6382  200.4229 C   0  0  0  0  0  0  0  0  0  0  0  0
  164.3096   30.0457  200.9026 C   0  0  0  0  0  0  0  0  0  0  0  0
  164.7646   29.3168  202.1697 C   0  0  0  0  0  0  0  0  0  0  0  0
  165.6509   30.1199  203.1240 C   0  0  0  0  0  0  0  0  0  0  0  0
  166.1270   29.3564  204.3654 C   0  0  0  0  0  0  0  0  0  0  0  0
  167.0593   30.2198  205.2367 C   0  0  1  0  0  0  0  0  0  0  0  0
  166.6504   31.5835  205.1435 O   0  0  0  0  0  0  0  0  0  0  0  0
  167.1030   29.7550  206.7137 C   0  0  1  0  0  0  0  0  0  0  0  0
  166.7412   28.3621  206.8061 O   0  0  0  0  0  0  0  0  0  0  0  0
  168.4913   29.9460  207.3876 C   0  0  2  0  0  0  0  0  0  0  0  0
  169.0710   31.3545  207.1637 C   0  0  0  0  0  0  0  0  0  0  0  0
  169.8312   31.3786  205.9504 O   0  0  0  0  0  0  0  0  0  0  0  0
  171.9715   30.7060  204.2172 O   0  0  0  0  0  0  0  0  0  0  0  0
  173.3424   33.9583  204.6336 O   0  0  0  0  0  0  0  0  0  0  0  0
  171.8072   31.1221  207.1323 O   0  0  0  0  0  0  0  0  0  0  0  0
  172.9190   31.3321  209.3967 O   0  0  0  0  0  0  0  0  0  0  0  0
  173.3764   33.5288  207.1993 O   0  0  0  0  0  0  0  0  0  0  0  0
  174.4273   34.4266  207.5508 C   0  0  0  0  0  0  0  0  0  0  0  0
  175.6576   33.6068  207.8263 C   0  0  0  0  0  0  0  0  0  0  0  0
  176.9341   34.1751  207.7278 C   0  0  0  0  0  0  0  0  0  0  0  0
  178.0729   33.4120  207.9973 C   0  0  0  0  0  0  0  0  0  0  0  0
  177.9445   32.0759  208.3728 C   0  0  0  0  0  0  0  0  0  0  0  0
  176.6796   31.5022  208.4856 C   0  0  0  0  0  0  0  0  0  0  0  0
  175.5415   32.2643  208.2185 C   0  0  0  0  0  0  0  0  0  0  0  0
  169.4492   28.9486  206.8902 N   0  0  0  0  0  0  0  0  0  0  0  0
  169.3171   27.6085  207.1671 C   0  0  0  0  0  0  0  0  0  0  0  0
  168.9832   27.1741  208.2617 O   0  0  0  0  0  0  0  0  0  0  0  0
  169.7308   26.6959  206.0287 C   0  0  0  0  0  0  0  0  0  0  0  0
  169.8350   25.2226  206.4202 C   0  0  0  0  0  0  0  0  0  0  0  0
  168.8833   24.8678  207.5679 C   0  0  0  0  0  0  0  0  0  0  0  0
  167.4800   24.5086  207.0659 C   0  0  0  0  0  0  0  0  0  0  0  0
  167.3300   23.0039  206.8324 C   0  0  0  0  0  0  0  0  0  0  0  0
  165.9761   22.6103  206.2292 C   0  0  0  0  0  0  0  0  0  0  0  0
  164.9480   22.1444  207.2625 C   0  0  0  0  0  0  0  0  0  0  0  0
  163.6060   21.8099  206.6069 C   0  0  0  0  0  0  0  0  0  0  0  0
  162.7289   20.9776  207.5437 C   0  0  0  0  0  0  0  0  0  0  0  0
  162.1643   21.8244  208.6876 C   0  0  0  0  0  0  0  0  0  0  0  0
  162.2461   21.1058  210.0387 C   0  0  0  0  0  0  0  0  0  0  0  0
  161.6584   21.9207  211.1953 C   0  0  0  0  0  0  0  0  0  0  0  0
  160.4704   21.2300  211.8793 C   0  0  0  0  0  0  0  0  0  0  0  0
  159.1988   21.1266  211.0273 C   0  0  0  0  0  0  0  0  0  0  0  0
  158.0040   20.5422  211.7865 C   0  0  0  0  0  0  0  0  0  0  0  0
  156.7575   21.4159  211.6245 C   0  0  0  0  0  0  0  0  0  0  0  0
  155.6915   21.1778  212.6999 C   0  0  0  0  0  0  0  0  0  0  0  0
  155.4623   19.7200  213.1151 C   0  0  0  0  0  0  0  0  0  0  0  0
  154.2608   19.5233  214.0418 C   0  0  0  0  0  0  0  0  0  0  0  0
  154.0114   18.0536  214.4060 C   0  0  0  0  0  0  0  0  0  0  0  0
  153.0186   17.8681  215.5572 C   0  0  0  0  0  0  0  0  0  0  0  0
  152.8474   16.3890  215.9116 C   0  0  0  0  0  0  0  0  0  0  0  0
  153.2448   15.4446  214.7727 C   0  0  0  0  0  0  0  0  0  0  0  0
  152.7847   14.0014  214.9844 C   0  0  0  0  0  0  0  0  0  0  0  0
  153.7467   13.0095  214.3490 C   0  0  0  0  0  0  0  0  0  0  0  0
  1  2  1  0
  1  6  1  1
 30  1  1  0
  3  2  1  0
  2 32  1  1
  4  3  1  0
  3 29  1  1
  5  4  1  0
  4 28  1  1
  5 27  1  6
  5 30  1  0
  6 31  1  0
  8  7  1  0
  9  8  1  0
 10  9  1  0
 11 10  1  0
 12 11  1  0
 13 12  1  0
 14 13  1  0
 15 14  1  0
 16 15  1  0
 17 16  1  0
 18 17  1  0
 19 18  1  0
 20 19  1  0
 21 20  1  0
 21 22  1  1
 23 21  1  0
 23 24  1  6
 25 23  1  0
 25 26  1  6
 25 40  1  0
 26 27  1  0
 32 33  1  0
 33 34  1  0
 34 35  2  0
 34 39  1  0
 35 36  1  0
 36 37  2  0
 37 38  1  0
 38 39  2  0
 40 41  1  0
 41 42  2  0
 41 43  1  0
 43 44  1  0
 44 45  1  0
 45 46  1  0
 46 47  1  0
 47 48  1  0
 48 49  1  0
 49 50  1  0
 50 51  1  0
 51 52  1  0
 52 53  1  0
 53 54  1  0
 54 55  1  0
 55 56  1  0
 56 57  1  0
 57 58  1  0
 58 59  1  0
 59 60  1  0
 60 61  1  0
 61 62  1  0
 62 63  1  0
 63 64  1  0
 64 65  1  0
 65 66  1  0
 66 67  1  0
M  END
$$$$
