
     RDKit          3D

 31 34  0  0  0  0  0  0  0  0999 V2000
  -13.3593    9.2361    0.0926 C   0  0  0  0  0  0  0  0  0  0  0  0
  -12.4424   10.0290   -0.5648 C   0  0  0  0  0  0  0  0  0  0  0  0
  -11.1201   10.1099   -0.1896 C   0  0  0  0  0  0  0  0  0  0  0  0
  -10.6553    9.3836    0.8820 C   0  0  0  0  0  0  0  0  0  0  0  0
  -27.0378    9.1380   -1.3999 C   0  0  0  0  0  0  0  0  0  0  0  0
  -25.5556    9.2135   -1.3093 C   0  0  0  0  0  0  0  0  0  0  0  0
  -24.7356    8.9457   -2.3833 C   0  0  0  0  0  0  0  0  0  0  0  0
  -23.3687    9.0289   -2.2521 C   0  0  0  0  0  0  0  0  0  0  0  0
  -24.9524    9.5612   -0.1229 C   0  0  0  0  0  0  0  0  0  0  0  0
  -23.5631    9.6474    0.0167 C   0  0  0  0  0  0  0  0  0  0  0  0
  -22.7383    9.3810   -1.0534 C   0  0  0  0  0  0  0  0  0  0  0  0
  -20.3102    7.8976   -1.6853 C   0  0  1  0  0  0  0  0  0  0  0  0
  -19.6528    6.0774   -0.3693 C   0  0  2  0  0  0  0  0  0  0  0  0
  -20.2229    5.2548    0.7808 C   0  0  0  0  0  0  0  0  0  0  0  0
  -18.5311    6.9886    0.1550 C   0  0  1  0  0  0  0  0  0  0  0  0
  -17.8674    7.4882   -1.1374 C   0  0  1  0  0  0  0  0  0  0  0  0
  -15.5144    8.0176   -0.4736 C   0  0  0  0  0  0  0  0  0  0  0  0
  -14.7565    9.1567   -0.3111 C   0  0  0  0  0  0  0  0  0  0  0  0
  -11.5533    8.5834    1.5553 C   0  0  0  0  0  0  0  0  0  0  0  0
  -12.8837    8.5091    1.1690 C   0  0  0  0  0  0  0  0  0  0  0  0
  -18.8865    8.1176   -2.0166 C   0  0  1  0  0  0  0  0  0  0  0  0
  -10.2257   10.8980   -0.8493 F   0  0  0  0  0  0  0  0  0  0  0  0
  -11.0893    7.8731    2.6069 F   0  0  0  0  0  0  0  0  0  0  0  0
  -16.7660    8.3545   -0.8580 N   0  0  0  0  0  0  0  0  0  0  0  0
  -15.5850   10.1711   -0.6069 N   0  0  0  0  0  0  0  0  0  0  0  0
  -16.7842    9.6733   -0.9322 N   0  0  0  0  0  0  0  0  0  0  0  0
  -20.6341    6.9100   -0.8152 O   0  0  0  0  0  0  0  0  0  0  0  0
  -21.3566    4.6210    0.3139 O   0  0  0  0  0  0  0  0  0  0  0  0
  -19.1547    8.0353    0.8164 O   0  0  0  0  0  0  0  0  0  0  0  0
  -18.6844    7.6249   -3.3308 O   0  0  0  0  0  0  0  0  0  0  0  0
  -20.9585    9.4582   -0.9655 S   0  0  0  0  0  0  0  0  0  0  0  0
  1  2  2  0
 18  1  1  0
  1 20  1  0
  2  3  1  0
  3  4  2  0
  3 22  1  0
  4 19  1  0
  6  5  1  0
  7  6  2  0
  9  6  1  0
  8  7  1  0
 11  8  2  0
 10  9  2  0
 11 10  1  0
 31 11  1  0
 21 12  1  0
 12 27  1  0
 12 31  1  1
 13 14  1  1
 15 13  1  0
 13 27  1  0
 14 28  1  0
 16 15  1  0
 15 29  1  6
 16 21  1  0
 16 24  1  1
 17 18  2  0
 17 24  1  0
 18 25  1  0
 19 20  2  0
 19 23  1  0
 21 30  1  6
 24 26  1  0
 25 26  2  0
M  END
$$$$
