
     RDKit          3D

 31 34  0  0  0  0  0  0  0  0999 V2000
  -13.5370    8.9410    0.2066 C   0  0  0  0  0  0  0  0  0  0  0  0
  -12.7487    9.0080   -0.9228 C   0  0  0  0  0  0  0  0  0  0  0  0
  -11.4790    9.5407   -0.9168 C   0  0  0  0  0  0  0  0  0  0  0  0
  -10.9385   10.0375    0.2462 C   0  0  0  0  0  0  0  0  0  0  0  0
  -26.2796   12.1817   -0.4544 C   0  0  0  0  0  0  0  0  0  0  0  0
  -24.9393   11.5620   -0.2805 C   0  0  0  0  0  0  0  0  0  0  0  0
  -24.6752   10.2595   -0.6432 C   0  0  0  0  0  0  0  0  0  0  0  0
  -23.4188    9.7289   -0.4637 C   0  0  0  0  0  0  0  0  0  0  0  0
  -23.9053   12.2913    0.2593 C   0  0  0  0  0  0  0  0  0  0  0  0
  -22.6256   11.7572    0.4444 C   0  0  0  0  0  0  0  0  0  0  0  0
  -22.3557   10.4559    0.0836 C   0  0  0  0  0  0  0  0  0  0  0  0
  -20.3375    8.8725   -1.3003 C   0  0  1  0  0  0  0  0  0  0  0  0
  -20.2545    6.5460   -1.5410 C   0  0  2  0  0  0  0  0  0  0  0  0
  -21.1377    5.3474   -1.2127 C   0  0  0  0  0  0  0  0  0  0  0  0
  -19.0613    6.5878   -0.5725 C   0  0  1  0  0  0  0  0  0  0  0  0
  -18.1312    7.6228   -1.2239 C   0  0  1  0  0  0  0  0  0  0  0  0
  -15.7989    8.4383   -0.8329 C   0  0  0  0  0  0  0  0  0  0  0  0
  -14.8794    8.3759    0.1912 C   0  0  0  0  0  0  0  0  0  0  0  0
  -11.7076    9.9816    1.3888 C   0  0  0  0  0  0  0  0  0  0  0  0
  -12.9859    9.4428    1.3719 C   0  0  0  0  0  0  0  0  0  0  0  0
  -18.8659    8.8965   -1.4378 C   0  0  1  0  0  0  0  0  0  0  0  0
  -10.7119    9.5999   -2.0413 F   0  0  0  0  0  0  0  0  0  0  0  0
  -11.1698   10.4717    2.5273 F   0  0  0  0  0  0  0  0  0  0  0  0
  -16.9312    7.7960   -0.4679 N   0  0  0  0  0  0  0  0  0  0  0  0
  -15.4910    7.6848    1.1664 N   0  0  0  0  0  0  0  0  0  0  0  0
  -16.7187    7.3451    0.7554 N   0  0  0  0  0  0  0  0  0  0  0  0
  -20.9746    7.6761   -1.2971 O   0  0  0  0  0  0  0  0  0  0  0  0
  -22.4453    5.7199   -1.4500 O   0  0  0  0  0  0  0  0  0  0  0  0
  -19.5522    7.0667    0.6323 O   0  0  0  0  0  0  0  0  0  0  0  0
  -18.5783    9.3435   -2.7524 O   0  0  0  0  0  0  0  0  0  0  0  0
  -20.7582    9.6900    0.2898 S   0  0  0  0  0  0  0  0  0  0  0  0
  1  2  2  0
 18  1  1  0
  1 20  1  0
  2  3  1  0
  3  4  2  0
  3 22  1  0
  4 19  1  0
  6  5  1  0
  7  6  2  0
  9  6  1  0
  8  7  1  0
 11  8  2  0
 10  9  2  0
 11 10  1  0
 31 11  1  0
 21 12  1  0
 12 27  1  0
 12 31  1  1
 13 14  1  1
 15 13  1  0
 13 27  1  0
 14 28  1  0
 16 15  1  0
 15 29  1  1
 16 21  1  0
 16 24  1  1
 17 18  2  0
 17 24  1  0
 18 25  1  0
 19 20  2  0
 19 23  1  0
 21 30  1  6
 24 26  1  0
 25 26  2  0
M  END
$$$$
