
     RDKit          3D

 31 34  0  0  0  0  0  0  0  0999 V2000
  -13.1973    9.1773    0.3526 C   0  0  0  0  0  0  0  0  0  0  0  0
  -12.1302    9.7069   -0.3419 C   0  0  0  0  0  0  0  0  0  0  0  0
  -10.8551    9.7604    0.1751 C   0  0  0  0  0  0  0  0  0  0  0  0
  -10.5944    9.2747    1.4352 C   0  0  0  0  0  0  0  0  0  0  0  0
  -26.6087    9.6985   -2.6395 C   0  0  0  0  0  0  0  0  0  0  0  0
  -25.1606    9.6546   -2.3050 C   0  0  0  0  0  0  0  0  0  0  0  0
  -24.3532    8.5953   -2.6565 C   0  0  0  0  0  0  0  0  0  0  0  0
  -23.0180    8.5989   -2.3256 C   0  0  0  0  0  0  0  0  0  0  0  0
  -24.5774   10.6955   -1.6202 C   0  0  0  0  0  0  0  0  0  0  0  0
  -23.2203   10.7049   -1.2807 C   0  0  0  0  0  0  0  0  0  0  0  0
  -22.4083    9.6488   -1.6297 C   0  0  0  0  0  0  0  0  0  0  0  0
  -20.0243    7.9982   -1.9248 C   0  0  1  0  0  0  0  0  0  0  0  0
  -19.4789    6.1586   -0.5847 C   0  0  2  0  0  0  0  0  0  0  0  0
  -20.1268    5.3465    0.5312 C   0  0  0  0  0  0  0  0  0  0  0  0
  -18.3642    7.0409    0.0003 C   0  0  1  0  0  0  0  0  0  0  0  0
  -17.6233    7.5283   -1.2543 C   0  0  1  0  0  0  0  0  0  0  0  0
  -15.3350    8.0094   -0.3656 C   0  0  0  0  0  0  0  0  0  0  0  0
  -14.5431    9.1249   -0.2020 C   0  0  0  0  0  0  0  0  0  0  0  0
  -11.6454    8.7403    2.1493 C   0  0  0  0  0  0  0  0  0  0  0  0
  -12.9265    8.6912    1.6190 C   0  0  0  0  0  0  0  0  0  0  0  0
  -18.5806    8.1848   -2.1818 C   0  0  1  0  0  0  0  0  0  0  0  0
   -9.8105   10.2867   -0.5236 F   0  0  0  0  0  0  0  0  0  0  0  0
  -11.3815    8.2654    3.3864 F   0  0  0  0  0  0  0  0  0  0  0  0
  -16.5173    8.3670   -0.9153 N   0  0  0  0  0  0  0  0  0  0  0  0
  -15.2809   10.1465   -0.6654 N   0  0  0  0  0  0  0  0  0  0  0  0
  -16.4601    9.6753   -1.0886 N   0  0  0  0  0  0  0  0  0  0  0  0
  -20.4159    7.0160   -1.0767 O   0  0  0  0  0  0  0  0  0  0  0  0
  -21.4908    5.3706    0.3220 O   0  0  0  0  0  0  0  0  0  0  0  0
  -18.9957    8.1003    0.6334 O   0  0  0  0  0  0  0  0  0  0  0  0
  -18.3232    7.6914   -3.4861 O   0  0  0  0  0  0  0  0  0  0  0  0
  -20.6712    9.5717   -1.2325 S   0  0  0  0  0  0  0  0  0  0  0  0
  1  2  2  0
 18  1  1  0
  1 20  1  0
  2  3  1  0
  3  4  2  0
  3 22  1  0
  4 19  1  0
  6  5  1  0
  7  6  2  0
  9  6  1  0
  8  7  1  0
 11  8  2  0
 10  9  2  0
 11 10  1  0
 31 11  1  0
 21 12  1  0
 12 27  1  0
 12 31  1  1
 13 14  1  1
 15 13  1  0
 13 27  1  0
 14 28  1  0
 16 15  1  0
 15 29  1  6
 16 21  1  0
 16 24  1  1
 17 18  2  0
 17 24  1  0
 18 25  1  0
 19 20  2  0
 19 23  1  0
 21 30  1  6
 24 26  1  0
 25 26  2  0
M  END
$$$$
