
     RDKit          3D

 31 34  0  0  0  0  0  0  0  0999 V2000
  -13.3724    9.2756    0.2077 C   0  0  0  0  0  0  0  0  0  0  0  0
  -12.4436   10.1486   -0.3185 C   0  0  0  0  0  0  0  0  0  0  0  0
  -11.1264   10.1683    0.0819 C   0  0  0  0  0  0  0  0  0  0  0  0
  -10.6792    9.2951    1.0459 C   0  0  0  0  0  0  0  0  0  0  0  0
  -26.7536   10.1797   -2.9726 C   0  0  0  0  0  0  0  0  0  0  0  0
  -25.3246   10.0885   -2.5720 C   0  0  0  0  0  0  0  0  0  0  0  0
  -24.3656    9.5204   -3.3814 C   0  0  0  0  0  0  0  0  0  0  0  0
  -23.0548    9.4586   -2.9684 C   0  0  0  0  0  0  0  0  0  0  0  0
  -24.9151   10.5812   -1.3546 C   0  0  0  0  0  0  0  0  0  0  0  0
  -23.5838   10.5213   -0.9290 C   0  0  0  0  0  0  0  0  0  0  0  0
  -22.6207    9.9546   -1.7340 C   0  0  0  0  0  0  0  0  0  0  0  0
  -20.2616    8.2613   -1.9836 C   0  0  1  0  0  0  0  0  0  0  0  0
  -19.7764    6.3835   -0.6736 C   0  0  2  0  0  0  0  0  0  0  0  0
  -20.4636    5.5557    0.4067 C   0  0  0  0  0  0  0  0  0  0  0  0
  -18.6641    7.2354   -0.0409 C   0  0  1  0  0  0  0  0  0  0  0  0
  -17.8851    7.7404   -1.2651 C   0  0  1  0  0  0  0  0  0  0  0  0
  -15.5355    8.1588   -0.5156 C   0  0  0  0  0  0  0  0  0  0  0  0
  -14.7641    9.2619   -0.2217 C   0  0  0  0  0  0  0  0  0  0  0  0
  -11.5892    8.4126    1.5871 C   0  0  0  0  0  0  0  0  0  0  0  0
  -12.9144    8.4010    1.1765 C   0  0  0  0  0  0  0  0  0  0  0  0
  -18.8094    8.4322   -2.2004 C   0  0  1  0  0  0  0  0  0  0  0  0
  -10.2201   11.0369   -0.4476 F   0  0  0  0  0  0  0  0  0  0  0  0
  -11.1425    7.5581    2.5336 F   0  0  0  0  0  0  0  0  0  0  0  0
  -16.7760    8.5545   -0.8794 N   0  0  0  0  0  0  0  0  0  0  0  0
  -15.5734   10.3150   -0.4189 N   0  0  0  0  0  0  0  0  0  0  0  0
  -16.7743    9.8737   -0.8124 N   0  0  0  0  0  0  0  0  0  0  0  0
  -20.6884    7.2658   -1.1685 O   0  0  0  0  0  0  0  0  0  0  0  0
  -21.8180    5.5727    0.1419 O   0  0  0  0  0  0  0  0  0  0  0  0
  -19.2960    8.2893    0.6009 O   0  0  0  0  0  0  0  0  0  0  0  0
  -18.5265    7.9651   -3.5091 O   0  0  0  0  0  0  0  0  0  0  0  0
  -20.9030    9.8280   -1.2709 S   0  0  0  0  0  0  0  0  0  0  0  0
  1  2  2  0
 18  1  1  0
  1 20  1  0
  2  3  1  0
  3  4  2  0
  3 22  1  0
  4 19  1  0
  6  5  1  0
  7  6  2  0
  9  6  1  0
  8  7  1  0
 11  8  2  0
 10  9  2  0
 11 10  1  0
 31 11  1  0
 21 12  1  0
 12 27  1  0
 12 31  1  1
 13 14  1  1
 15 13  1  0
 13 27  1  0
 14 28  1  0
 16 15  1  0
 15 29  1  6
 16 21  1  0
 16 24  1  1
 17 18  2  0
 17 24  1  0
 18 25  1  0
 19 20  2  0
 19 23  1  0
 21 30  1  6
 24 26  1  0
 25 26  2  0
M  END
$$$$
