
     RDKit          3D

 31 34  0  0  0  0  0  0  0  0999 V2000
  -13.4612    9.1700    0.0649 C   0  0  0  0  0  0  0  0  0  0  0  0
  -12.7949    9.5485   -1.0816 C   0  0  0  0  0  0  0  0  0  0  0  0
  -11.4507    9.8461   -1.1004 C   0  0  0  0  0  0  0  0  0  0  0  0
  -10.7061    9.7744    0.0538 C   0  0  0  0  0  0  0  0  0  0  0  0
  -27.0606    9.9687   -1.1295 C   0  0  0  0  0  0  0  0  0  0  0  0
  -25.5868    9.8755   -0.9559 C   0  0  0  0  0  0  0  0  0  0  0  0
  -24.9997    9.6658    0.2725 C   0  0  0  0  0  0  0  0  0  0  0  0
  -23.6309    9.5861    0.3844 C   0  0  0  0  0  0  0  0  0  0  0  0
  -24.7535    9.9988   -2.0435 C   0  0  0  0  0  0  0  0  0  0  0  0
  -23.3610    9.9188   -1.9361 C   0  0  0  0  0  0  0  0  0  0  0  0
  -22.7685    9.7092   -0.7107 C   0  0  0  0  0  0  0  0  0  0  0  0
  -20.3480    8.4983   -1.7925 C   0  0  1  0  0  0  0  0  0  0  0  0
  -19.9399    6.2206   -1.4421 C   0  0  2  0  0  0  0  0  0  0  0  0
  -20.6821    5.0185   -0.8689 C   0  0  0  0  0  0  0  0  0  0  0  0
  -18.8474    6.6692   -0.4581 C   0  0  1  0  0  0  0  0  0  0  0  0
  -18.0105    7.6438   -1.3008 C   0  0  1  0  0  0  0  0  0  0  0  0
  -15.6242    8.3052   -0.9466 C   0  0  0  0  0  0  0  0  0  0  0  0
  -14.8837    8.8571    0.0757 C   0  0  0  0  0  0  0  0  0  0  0  0
  -11.3500    9.3982    1.2130 C   0  0  0  0  0  0  0  0  0  0  0  0
  -12.7051    9.1004    1.2210 C   0  0  0  0  0  0  0  0  0  0  0  0
  -18.8860    8.7061   -1.8603 C   0  0  1  0  0  0  0  0  0  0  0  0
  -10.8061   10.2186   -2.2415 F   0  0  0  0  0  0  0  0  0  0  0  0
  -10.6119    9.3301    2.3427 F   0  0  0  0  0  0  0  0  0  0  0  0
  -16.9109    8.1687   -0.5546 N   0  0  0  0  0  0  0  0  0  0  0  0
  -15.7581    9.0432    1.0776 N   0  0  0  0  0  0  0  0  0  0  0  0
  -16.9672    8.6257    0.6835 N   0  0  0  0  0  0  0  0  0  0  0  0
  -20.8202    7.2568   -1.5224 O   0  0  0  0  0  0  0  0  0  0  0  0
  -22.0152    5.3627   -0.7728 O   0  0  0  0  0  0  0  0  0  0  0  0
  -19.4956    7.3447    0.5645 O   0  0  0  0  0  0  0  0  0  0  0  0
  -18.5513    8.8627   -3.2294 O   0  0  0  0  0  0  0  0  0  0  0  0
  -21.0034    9.6014   -0.4782 S   0  0  0  0  0  0  0  0  0  0  0  0
  1  2  2  0
 18  1  1  0
  1 20  1  0
  2  3  1  0
  3  4  2  0
  3 22  1  0
  4 19  1  0
  6  5  1  0
  7  6  2  0
  9  6  1  0
  8  7  1  0
 11  8  2  0
 10  9  2  0
 11 10  1  0
 31 11  1  0
 21 12  1  0
 12 27  1  0
 12 31  1  1
 13 14  1  1
 15 13  1  0
 13 27  1  0
 14 28  1  0
 16 15  1  0
 15 29  1  1
 16 21  1  0
 16 24  1  1
 17 18  2  0
 17 24  1  0
 18 25  1  0
 19 20  2  0
 19 23  1  0
 21 30  1  6
 24 26  1  0
 25 26  2  0
M  END
$$$$
