
     RDKit          3D

 31 34  0  0  0  0  0  0  0  0999 V2000
  -13.3042    9.0079    0.2581 C   0  0  0  0  0  0  0  0  0  0  0  0
  -12.4663    8.4645   -0.6926 C   0  0  0  0  0  0  0  0  0  0  0  0
  -11.0940    8.5442   -0.6120 C   0  0  0  0  0  0  0  0  0  0  0  0
  -10.4955    9.1854    0.4474 C   0  0  0  0  0  0  0  0  0  0  0  0
  -27.0394    9.7628   -0.8011 C   0  0  0  0  0  0  0  0  0  0  0  0
  -25.5614    9.6997   -0.6513 C   0  0  0  0  0  0  0  0  0  0  0  0
  -24.9542    9.2877    0.5145 C   0  0  0  0  0  0  0  0  0  0  0  0
  -23.5823    9.2452    0.6065 C   0  0  0  0  0  0  0  0  0  0  0  0
  -24.7446   10.0595   -1.6981 C   0  0  0  0  0  0  0  0  0  0  0  0
  -23.3490   10.0185   -1.6106 C   0  0  0  0  0  0  0  0  0  0  0  0
  -22.7364    9.6073   -0.4478 C   0  0  0  0  0  0  0  0  0  0  0  0
  -20.3183    8.3944   -1.5327 C   0  0  1  0  0  0  0  0  0  0  0  0
  -19.7648    6.1644   -1.0877 C   0  0  2  0  0  0  0  0  0  0  0  0
  -20.4074    4.9574   -0.4134 C   0  0  0  0  0  0  0  0  0  0  0  0
  -18.6500    6.7240   -0.1892 C   0  0  1  0  0  0  0  0  0  0  0  0
  -17.9141    7.6946   -1.1256 C   0  0  1  0  0  0  0  0  0  0  0  0
  -15.4888    8.1144   -0.6792 C   0  0  0  0  0  0  0  0  0  0  0  0
  -14.7551    8.9190    0.1647 C   0  0  0  0  0  0  0  0  0  0  0  0
  -11.3125    9.7369    1.4109 C   0  0  0  0  0  0  0  0  0  0  0  0
  -12.6942    9.6510    1.3201 C   0  0  0  0  0  0  0  0  0  0  0  0
  -18.8758    8.6762   -1.6908 C   0  0  1  0  0  0  0  0  0  0  0  0
  -10.2789    8.0019   -1.5596 F   0  0  0  0  0  0  0  0  0  0  0  0
  -10.7172   10.3652    2.4484 F   0  0  0  0  0  0  0  0  0  0  0  0
  -16.8088    8.3176   -0.4687 N   0  0  0  0  0  0  0  0  0  0  0  0
  -15.6673    9.6002    0.8766 N   0  0  0  0  0  0  0  0  0  0  0  0
  -16.8919    9.2281    0.4848 N   0  0  0  0  0  0  0  0  0  0  0  0
  -20.7052    7.1460   -1.1733 O   0  0  0  0  0  0  0  0  0  0  0  0
  -21.7431    5.2505   -0.2262 O   0  0  0  0  0  0  0  0  0  0  0  0
  -19.2816    7.4187    0.8309 O   0  0  0  0  0  0  0  0  0  0  0  0
  -18.6216    8.7755   -3.0823 O   0  0  0  0  0  0  0  0  0  0  0  0
  -20.9662    9.5311   -0.2434 S   0  0  0  0  0  0  0  0  0  0  0  0
  1  2  2  0
 18  1  1  0
  1 20  1  0
  2  3  1  0
  3  4  2  0
  3 22  1  0
  4 19  1  0
  6  5  1  0
  7  6  2  0
  9  6  1  0
  8  7  1  0
 11  8  2  0
 10  9  2  0
 11 10  1  0
 31 11  1  0
 21 12  1  0
 12 27  1  0
 12 31  1  1
 13 14  1  1
 15 13  1  0
 13 27  1  0
 14 28  1  0
 16 15  1  0
 15 29  1  1
 16 21  1  0
 16 24  1  1
 17 18  2  0
 17 24  1  0
 18 25  1  0
 19 20  2  0
 19 23  1  0
 21 30  1  6
 24 26  1  0
 25 26  2  0
M  END
$$$$
