
     RDKit          3D

 31 34  0  0  0  0  0  0  0  0999 V2000
  -13.3171    8.8872    0.2177 C   0  0  0  0  0  0  0  0  0  0  0  0
  -12.7643    9.5674    1.2821 C   0  0  0  0  0  0  0  0  0  0  0  0
  -11.4147    9.5579    1.5548 C   0  0  0  0  0  0  0  0  0  0  0  0
  -10.5481    8.8511    0.7539 C   0  0  0  0  0  0  0  0  0  0  0  0
  -26.7229   10.1655   -2.7835 C   0  0  0  0  0  0  0  0  0  0  0  0
  -25.2925   10.0434   -2.3963 C   0  0  0  0  0  0  0  0  0  0  0  0
  -24.4169    9.2107   -3.0577 C   0  0  0  0  0  0  0  0  0  0  0  0
  -23.1013    9.1308   -2.6637 C   0  0  0  0  0  0  0  0  0  0  0  0
  -24.7964   10.7766   -1.3433 C   0  0  0  0  0  0  0  0  0  0  0  0
  -23.4597   10.6996   -0.9379 C   0  0  0  0  0  0  0  0  0  0  0  0
  -22.5798    9.8691   -1.5954 C   0  0  0  0  0  0  0  0  0  0  0  0
  -20.2509    8.1430   -1.8995 C   0  0  1  0  0  0  0  0  0  0  0  0
  -19.8767    6.1973   -0.6539 C   0  0  2  0  0  0  0  0  0  0  0  0
  -20.6292    5.3514    0.3672 C   0  0  0  0  0  0  0  0  0  0  0  0
  -18.7585    6.9823    0.0508 C   0  0  1  0  0  0  0  0  0  0  0  0
  -17.9203    7.5084   -1.1244 C   0  0  1  0  0  0  0  0  0  0  0  0
  -15.5154    7.8604   -0.5328 C   0  0  0  0  0  0  0  0  0  0  0  0
  -14.7463    8.9026   -0.0632 C   0  0  0  0  0  0  0  0  0  0  0  0
  -11.0773    8.1628   -0.3167 C   0  0  0  0  0  0  0  0  0  0  0  0
  -12.4388    8.1790   -0.5826 C   0  0  0  0  0  0  0  0  0  0  0  0
  -18.7870    8.2704   -2.0603 C   0  0  1  0  0  0  0  0  0  0  0  0
  -10.8831   10.2353    2.6106 F   0  0  0  0  0  0  0  0  0  0  0  0
  -10.2198    7.4709   -1.0987 F   0  0  0  0  0  0  0  0  0  0  0  0
  -16.7980    8.2659   -0.6680 N   0  0  0  0  0  0  0  0  0  0  0  0
  -15.5997    9.9298    0.0758 N   0  0  0  0  0  0  0  0  0  0  0  0
  -16.8239    9.5315   -0.2906 N   0  0  0  0  0  0  0  0  0  0  0  0
  -20.7399    7.1311   -1.1416 O   0  0  0  0  0  0  0  0  0  0  0  0
  -20.8828    4.1267   -0.2166 O   0  0  0  0  0  0  0  0  0  0  0  0
  -19.3757    8.0312    0.7148 O   0  0  0  0  0  0  0  0  0  0  0  0
  -18.4749    7.8471   -3.3771 O   0  0  0  0  0  0  0  0  0  0  0  0
  -20.8625    9.7013   -1.1437 S   0  0  0  0  0  0  0  0  0  0  0  0
  1  2  2  0
 18  1  1  0
  1 20  1  0
  2  3  1  0
  3  4  2  0
  3 22  1  0
  4 19  1  0
  6  5  1  0
  7  6  2  0
  9  6  1  0
  8  7  1  0
 11  8  2  0
 10  9  2  0
 11 10  1  0
 31 11  1  0
 21 12  1  0
 12 27  1  0
 12 31  1  1
 13 14  1  1
 15 13  1  0
 13 27  1  0
 14 28  1  0
 16 15  1  0
 15 29  1  6
 16 21  1  0
 16 24  1  1
 17 18  2  0
 17 24  1  0
 18 25  1  0
 19 20  2  0
 19 23  1  0
 21 30  1  6
 24 26  1  0
 25 26  2  0
M  END
$$$$
