
     RDKit          3D

 31 34  0  0  0  0  0  0  0  0999 V2000
  -13.6464    8.7846   -0.0561 C   0  0  0  0  0  0  0  0  0  0  0  0
  -12.4628    9.3101   -0.5298 C   0  0  0  0  0  0  0  0  0  0  0  0
  -11.3497    9.4776    0.2632 C   0  0  0  0  0  0  0  0  0  0  0  0
  -11.3803    9.1172    1.5902 C   0  0  0  0  0  0  0  0  0  0  0  0
  -26.7445   10.4735   -0.7058 C   0  0  0  0  0  0  0  0  0  0  0  0
  -25.2755   10.2490   -0.7565 C   0  0  0  0  0  0  0  0  0  0  0  0
  -24.6117    9.9662   -1.9299 C   0  0  0  0  0  0  0  0  0  0  0  0
  -23.2507    9.7662   -1.9281 C   0  0  0  0  0  0  0  0  0  0  0  0
  -24.5253   10.3201    0.3944 C   0  0  0  0  0  0  0  0  0  0  0  0
  -23.1411   10.1177    0.4027 C   0  0  0  0  0  0  0  0  0  0  0  0
  -22.4721    9.8348   -0.7673 C   0  0  0  0  0  0  0  0  0  0  0  0
  -20.4497    8.0406   -1.8563 C   0  0  1  0  0  0  0  0  0  0  0  0
  -19.8622    5.9821   -0.9103 C   0  0  2  0  0  0  0  0  0  0  0  0
  -20.3428    5.0866    0.2261 C   0  0  0  0  0  0  0  0  0  0  0  0
  -18.5388    6.6553   -0.5119 C   0  0  1  0  0  0  0  0  0  0  0  0
  -18.0420    7.2417   -1.8422 C   0  0  1  0  0  0  0  0  0  0  0  0
  -15.9054    7.7970   -0.6656 C   0  0  0  0  0  0  0  0  0  0  0  0
  -14.8193    8.6110   -0.9022 C   0  0  0  0  0  0  0  0  0  0  0  0
  -12.5528    8.5894    2.0870 C   0  0  0  0  0  0  0  0  0  0  0  0
  -13.6687    8.4248    1.2793 C   0  0  0  0  0  0  0  0  0  0  0  0
  -19.0892    8.1172   -2.4293 C   0  0  1  0  0  0  0  0  0  0  0  0
  -10.1869    9.9983   -0.2195 F   0  0  0  0  0  0  0  0  0  0  0  0
  -12.5751    8.2379    3.3914 F   0  0  0  0  0  0  0  0  0  0  0  0
  -16.7881    7.9082   -1.6836 N   0  0  0  0  0  0  0  0  0  0  0  0
  -15.0785    9.2040   -2.0787 N   0  0  0  0  0  0  0  0  0  0  0  0
  -16.2612    8.7721   -2.5328 N   0  0  0  0  0  0  0  0  0  0  0  0
  -20.7654    6.9906   -1.0593 O   0  0  0  0  0  0  0  0  0  0  0  0
  -21.6360    4.7040   -0.0673 O   0  0  0  0  0  0  0  0  0  0  0  0
  -18.8674    7.6702    0.3735 O   0  0  0  0  0  0  0  0  0  0  0  0
  -19.1987    7.7934   -3.8055 O   0  0  0  0  0  0  0  0  0  0  0  0
  -20.7126    9.5547   -0.8503 S   0  0  0  0  0  0  0  0  0  0  0  0
  1  2  2  0
 18  1  1  0
  1 20  1  0
  2  3  1  0
  3  4  2  0
  3 22  1  0
  4 19  1  0
  6  5  1  0
  7  6  2  0
  9  6  1  0
  8  7  1  0
 11  8  2  0
 10  9  2  0
 11 10  1  0
 31 11  1  0
 21 12  1  0
 12 27  1  0
 12 31  1  1
 13 14  1  1
 15 13  1  0
 13 27  1  0
 14 28  1  0
 16 15  1  0
 15 29  1  1
 16 21  1  0
 16 24  1  1
 17 18  2  0
 17 24  1  0
 18 25  1  0
 19 20  2  0
 19 23  1  0
 21 30  1  6
 24 26  1  0
 25 26  2  0
M  END
$$$$
