
     RDKit          3D

 31 34  0  0  0  0  0  0  0  0999 V2000
  -13.9655    8.5872    0.1437 C   0  0  0  0  0  0  0  0  0  0  0  0
  -12.6362    8.7832   -0.1662 C   0  0  0  0  0  0  0  0  0  0  0  0
  -11.6902    9.1141    0.7779 C   0  0  0  0  0  0  0  0  0  0  0  0
  -12.0473    9.2646    2.0976 C   0  0  0  0  0  0  0  0  0  0  0  0
  -26.3075   10.9365    0.6457 C   0  0  0  0  0  0  0  0  0  0  0  0
  -24.8859   10.6333    0.3326 C   0  0  0  0  0  0  0  0  0  0  0  0
  -24.2014    9.6001    0.9339 C   0  0  0  0  0  0  0  0  0  0  0  0
  -22.8862    9.3570    0.6121 C   0  0  0  0  0  0  0  0  0  0  0  0
  -24.2030   11.3950   -0.5872 C   0  0  0  0  0  0  0  0  0  0  0  0
  -22.8656   11.1528   -0.9186 C   0  0  0  0  0  0  0  0  0  0  0  0
  -22.1763   10.1212   -0.3208 C   0  0  0  0  0  0  0  0  0  0  0  0
  -20.4579    8.3827   -1.9083 C   0  0  1  0  0  0  0  0  0  0  0  0
  -20.2308    6.1333   -1.3034 C   0  0  2  0  0  0  0  0  0  0  0  0
  -20.8625    5.1648   -0.3098 C   0  0  0  0  0  0  0  0  0  0  0  0
  -18.8158    6.5057   -0.8319 C   0  0  1  0  0  0  0  0  0  0  0  0
  -18.2188    7.2008   -2.0651 C   0  0  1  0  0  0  0  0  0  0  0  0
  -16.2675    7.8612   -0.6460 C   0  0  0  0  0  0  0  0  0  0  0  0
  -14.9598    8.2375   -0.8617 C   0  0  0  0  0  0  0  0  0  0  0  0
  -13.3708    9.0737    2.4321 C   0  0  0  0  0  0  0  0  0  0  0  0
  -14.3162    8.7405    1.4729 C   0  0  0  0  0  0  0  0  0  0  0  0
  -19.1002    8.3193   -2.4892 C   0  0  1  0  0  0  0  0  0  0  0  0
  -10.3800    9.3045    0.4563 F   0  0  0  0  0  0  0  0  0  0  0  0
  -13.7140    9.2234    3.7303 F   0  0  0  0  0  0  0  0  0  0  0  0
  -16.8718    7.6157   -1.8302 N   0  0  0  0  0  0  0  0  0  0  0  0
  -14.8049    8.2091   -2.1951 N   0  0  0  0  0  0  0  0  0  0  0  0
  -15.9593    7.8349   -2.7598 N   0  0  0  0  0  0  0  0  0  0  0  0
  -20.9509    7.2891   -1.2770 O   0  0  0  0  0  0  0  0  0  0  0  0
  -20.3024    3.9226   -0.5297 O   0  0  0  0  0  0  0  0  0  0  0  0
  -18.9752    7.4110    0.2059 O   0  0  0  0  0  0  0  0  0  0  0  0
  -19.2534    8.2366   -3.8965 O   0  0  0  0  0  0  0  0  0  0  0  0
  -20.4695    9.7442   -0.6755 S   0  0  0  0  0  0  0  0  0  0  0  0
  1  2  2  0
 18  1  1  0
  1 20  1  0
  2  3  1  0
  3  4  2  0
  3 22  1  0
  4 19  1  0
  6  5  1  0
  7  6  2  0
  9  6  1  0
  8  7  1  0
 11  8  2  0
 10  9  2  0
 11 10  1  0
 31 11  1  0
 21 12  1  0
 12 27  1  0
 12 31  1  1
 13 14  1  1
 15 13  1  0
 13 27  1  0
 14 28  1  0
 16 15  1  0
 15 29  1  1
 16 21  1  0
 16 24  1  1
 17 18  2  0
 17 24  1  0
 18 25  1  0
 19 20  2  0
 19 23  1  0
 21 30  1  6
 24 26  1  0
 25 26  2  0
M  END
$$$$
