
     RDKit          3D

 31 34  0  0  0  0  0  0  0  0999 V2000
  -13.3018    9.0899    0.1943 C   0  0  0  0  0  0  0  0  0  0  0  0
  -12.8893    8.3554    1.2860 C   0  0  0  0  0  0  0  0  0  0  0  0
  -11.6103    8.4228    1.7914 C   0  0  0  0  0  0  0  0  0  0  0  0
  -10.6749    9.2466    1.2099 C   0  0  0  0  0  0  0  0  0  0  0  0
  -26.9075    9.2772   -1.6157 C   0  0  0  0  0  0  0  0  0  0  0  0
  -25.4303    9.2742   -1.4470 C   0  0  0  0  0  0  0  0  0  0  0  0
  -24.8108    9.8372   -0.3530 C   0  0  0  0  0  0  0  0  0  0  0  0
  -23.4401    9.8101   -0.2397 C   0  0  0  0  0  0  0  0  0  0  0  0
  -24.6267    8.6952   -2.4017 C   0  0  0  0  0  0  0  0  0  0  0  0
  -23.2323    8.6646   -2.2922 C   0  0  0  0  0  0  0  0  0  0  0  0
  -22.6075    9.2256   -1.2007 C   0  0  0  0  0  0  0  0  0  0  0  0
  -20.1710    7.7590   -1.8393 C   0  0  1  0  0  0  0  0  0  0  0  0
  -19.4594    5.8479   -0.6910 C   0  0  2  0  0  0  0  0  0  0  0  0
  -19.9963    4.9200    0.3931 C   0  0  0  0  0  0  0  0  0  0  0  0
  -18.3472    6.7340   -0.1069 C   0  0  1  0  0  0  0  0  0  0  0  0
  -17.7128    7.3539   -1.3614 C   0  0  1  0  0  0  0  0  0  0  0  0
  -15.4207    7.8789   -0.5081 C   0  0  0  0  0  0  0  0  0  0  0  0
  -14.6570    9.0123   -0.3339 C   0  0  0  0  0  0  0  0  0  0  0  0
  -11.0637    9.9911    0.1169 C   0  0  0  0  0  0  0  0  0  0  0  0
  -12.3551    9.9157   -0.3845 C   0  0  0  0  0  0  0  0  0  0  0  0
  -18.7569    8.0347   -2.1702 C   0  0  1  0  0  0  0  0  0  0  0  0
  -11.2175    7.6907    2.8713 F   0  0  0  0  0  0  0  0  0  0  0  0
  -10.1393   10.7979   -0.4490 F   0  0  0  0  0  0  0  0  0  0  0  0
  -16.6238    8.2155   -1.0249 N   0  0  0  0  0  0  0  0  0  0  0  0
  -15.4326   10.0231   -0.7575 N   0  0  0  0  0  0  0  0  0  0  0  0
  -16.6068    9.5286   -1.1679 N   0  0  0  0  0  0  0  0  0  0  0  0
  -20.4629    6.6953   -1.0516 O   0  0  0  0  0  0  0  0  0  0  0  0
  -21.3645    4.8414    0.2299 O   0  0  0  0  0  0  0  0  0  0  0  0
  -18.9802    7.7085    0.6491 O   0  0  0  0  0  0  0  0  0  0  0  0
  -18.5657    7.6586   -3.5240 O   0  0  0  0  0  0  0  0  0  0  0  0
  -20.8375    9.2401   -0.9814 S   0  0  0  0  0  0  0  0  0  0  0  0
  1  2  2  0
 18  1  1  0
  1 20  1  0
  2  3  1  0
  3  4  2  0
  3 22  1  0
  4 19  1  0
  6  5  1  0
  7  6  2  0
  9  6  1  0
  8  7  1  0
 11  8  2  0
 10  9  2  0
 11 10  1  0
 31 11  1  0
 21 12  1  0
 12 27  1  0
 12 31  1  1
 13 14  1  1
 15 13  1  0
 13 27  1  0
 14 28  1  0
 16 15  1  0
 15 29  1  1
 16 21  1  0
 16 24  1  1
 17 18  2  0
 17 24  1  0
 18 25  1  0
 19 20  2  0
 19 23  1  0
 21 30  1  6
 24 26  1  0
 25 26  2  0
M  END
$$$$
