
     RDKit          3D

 31 34  0  0  0  0  0  0  0  0999 V2000
  -13.3495    8.7775    0.1558 C   0  0  0  0  0  0  0  0  0  0  0  0
  -12.4639    8.1848   -0.7193 C   0  0  0  0  0  0  0  0  0  0  0  0
  -11.1028    8.1739   -0.5113 C   0  0  0  0  0  0  0  0  0  0  0  0
  -10.5649    8.7695    0.6057 C   0  0  0  0  0  0  0  0  0  0  0  0
  -27.0131    9.8065   -1.5649 C   0  0  0  0  0  0  0  0  0  0  0  0
  -25.5465    9.7077   -1.3413 C   0  0  0  0  0  0  0  0  0  0  0  0
  -24.9893    8.7705   -0.4994 C   0  0  0  0  0  0  0  0  0  0  0  0
  -23.6259    8.7166   -0.3240 C   0  0  0  0  0  0  0  0  0  0  0  0
  -24.6895   10.5700   -1.9850 C   0  0  0  0  0  0  0  0  0  0  0  0
  -23.3023   10.5203   -1.8106 C   0  0  0  0  0  0  0  0  0  0  0  0
  -22.7396    9.5854   -0.9705 C   0  0  0  0  0  0  0  0  0  0  0  0
  -20.3305    8.2097   -1.8643 C   0  0  1  0  0  0  0  0  0  0  0  0
  -19.7888    6.0239   -1.2269 C   0  0  2  0  0  0  0  0  0  0  0  0
  -20.4412    4.8805   -0.4579 C   0  0  0  0  0  0  0  0  0  0  0  0
  -18.6792    6.6546   -0.3701 C   0  0  1  0  0  0  0  0  0  0  0  0
  -17.9323    7.5399   -1.3795 C   0  0  1  0  0  0  0  0  0  0  0  0
  -15.5248    7.8607   -0.7808 C   0  0  0  0  0  0  0  0  0  0  0  0
  -14.7881    8.7845   -0.0722 C   0  0  0  0  0  0  0  0  0  0  0  0
  -11.4304    9.3688    1.4955 C   0  0  0  0  0  0  0  0  0  0  0  0
  -12.8004    9.3741    1.2764 C   0  0  0  0  0  0  0  0  0  0  0  0
  -18.8859    8.4728   -2.0339 C   0  0  1  0  0  0  0  0  0  0  0  0
  -10.2401    7.5839   -1.3854 F   0  0  0  0  0  0  0  0  0  0  0  0
  -10.8946    9.9518    2.5903 F   0  0  0  0  0  0  0  0  0  0  0  0
  -16.8299    8.2132   -0.7688 N   0  0  0  0  0  0  0  0  0  0  0  0
  -15.6836    9.6878    0.3578 N   0  0  0  0  0  0  0  0  0  0  0  0
  -16.9013    9.3307   -0.0680 N   0  0  0  0  0  0  0  0  0  0  0  0
  -20.7248    6.9975   -1.4034 O   0  0  0  0  0  0  0  0  0  0  0  0
  -21.6771    5.3217   -0.0303 O   0  0  0  0  0  0  0  0  0  0  0  0
  -19.3164    7.4353    0.5820 O   0  0  0  0  0  0  0  0  0  0  0  0
  -18.6202    8.4526   -3.4267 O   0  0  0  0  0  0  0  0  0  0  0  0
  -20.9845    9.4537   -0.6817 S   0  0  0  0  0  0  0  0  0  0  0  0
  1  2  2  0
 18  1  1  0
  1 20  1  0
  2  3  1  0
  3  4  2  0
  3 22  1  0
  4 19  1  0
  6  5  1  0
  7  6  2  0
  9  6  1  0
  8  7  1  0
 11  8  2  0
 10  9  2  0
 11 10  1  0
 31 11  1  0
 21 12  1  0
 12 27  1  0
 12 31  1  1
 13 14  1  1
 15 13  1  0
 13 27  1  0
 14 28  1  0
 16 15  1  0
 15 29  1  1
 16 21  1  0
 16 24  1  1
 17 18  2  0
 17 24  1  0
 18 25  1  0
 19 20  2  0
 19 23  1  0
 21 30  1  6
 24 26  1  0
 25 26  2  0
M  END
$$$$
