
     RDKit          3D

 31 34  0  0  0  0  0  0  0  0999 V2000
  -13.8574    8.8345   -0.0088 C   0  0  0  0  0  0  0  0  0  0  0  0
  -12.5762    9.2522   -0.3010 C   0  0  0  0  0  0  0  0  0  0  0  0
  -11.6606    9.5889    0.6707 C   0  0  0  0  0  0  0  0  0  0  0  0
  -12.0008    9.5185    2.0015 C   0  0  0  0  0  0  0  0  0  0  0  0
  -26.3188   10.8317    0.1504 C   0  0  0  0  0  0  0  0  0  0  0  0
  -24.8791   10.5386   -0.0781 C   0  0  0  0  0  0  0  0  0  0  0  0
  -23.8760   11.1795    0.6151 C   0  0  0  0  0  0  0  0  0  0  0  0
  -22.5571   10.8748    0.3698 C   0  0  0  0  0  0  0  0  0  0  0  0
  -24.5046    9.5977   -1.0091 C   0  0  0  0  0  0  0  0  0  0  0  0
  -23.1652    9.2836   -1.2631 C   0  0  0  0  0  0  0  0  0  0  0  0
  -22.1581    9.9208   -0.5731 C   0  0  0  0  0  0  0  0  0  0  0  0
  -20.3086    8.3048   -2.1425 C   0  0  1  0  0  0  0  0  0  0  0  0
  -19.9280    6.0463   -1.6613 C   0  0  2  0  0  0  0  0  0  0  0  0
  -20.4973    4.9815   -0.7303 C   0  0  0  0  0  0  0  0  0  0  0  0
  -18.5463    6.4896   -1.1537 C   0  0  1  0  0  0  0  0  0  0  0  0
  -17.9906    7.2931   -2.3395 C   0  0  1  0  0  0  0  0  0  0  0  0
  -16.0978    7.9982   -0.8638 C   0  0  0  0  0  0  0  0  0  0  0  0
  -14.8197    8.4803   -1.0433 C   0  0  0  0  0  0  0  0  0  0  0  0
  -13.2764    9.1035    2.3187 C   0  0  0  0  0  0  0  0  0  0  0  0
  -14.1914    8.7665    1.3318 C   0  0  0  0  0  0  0  0  0  0  0  0
  -18.9454    8.3694   -2.7106 C   0  0  1  0  0  0  0  0  0  0  0  0
  -10.3978   10.0000    0.3663 F   0  0  0  0  0  0  0  0  0  0  0  0
  -13.6032    9.0369    3.6280 F   0  0  0  0  0  0  0  0  0  0  0  0
  -16.6780    7.7873   -2.0666 N   0  0  0  0  0  0  0  0  0  0  0  0
  -14.6577    8.5496   -2.3744 N   0  0  0  0  0  0  0  0  0  0  0  0
  -15.7798    8.1310   -2.9721 N   0  0  0  0  0  0  0  0  0  0  0  0
  -20.7279    7.1456   -1.5788 O   0  0  0  0  0  0  0  0  0  0  0  0
  -21.8725    5.0924   -0.7670 O   0  0  0  0  0  0  0  0  0  0  0  0
  -18.7767    7.3216   -0.0690 O   0  0  0  0  0  0  0  0  0  0  0  0
  -19.0820    8.3555   -4.1220 O   0  0  0  0  0  0  0  0  0  0  0  0
  -20.4251    9.5906   -0.8360 S   0  0  0  0  0  0  0  0  0  0  0  0
  1  2  2  0
 18  1  1  0
  1 20  1  0
  2  3  1  0
  3  4  2  0
  3 22  1  0
  4 19  1  0
  6  5  1  0
  7  6  2  0
  9  6  1  0
  8  7  1  0
 11  8  2  0
 10  9  2  0
 11 10  1  0
 31 11  1  0
 21 12  1  0
 12 27  1  0
 12 31  1  1
 13 14  1  1
 15 13  1  0
 13 27  1  0
 14 28  1  0
 16 15  1  0
 15 29  1  1
 16 21  1  0
 16 24  1  1
 17 18  2  0
 17 24  1  0
 18 25  1  0
 19 20  2  0
 19 23  1  0
 21 30  1  6
 24 26  1  0
 25 26  2  0
M  END
$$$$
