
     RDKit          3D

 31 34  0  0  0  0  0  0  0  0999 V2000
  -13.1783    8.7871    0.0890 C   0  0  0  0  0  0  0  0  0  0  0  0
  -12.2305    8.0712   -0.6114 C   0  0  0  0  0  0  0  0  0  0  0  0
  -10.9032    8.0335   -0.2472 C   0  0  0  0  0  0  0  0  0  0  0  0
  -10.4648    8.7267    0.8570 C   0  0  0  0  0  0  0  0  0  0  0  0
  -26.8118    9.6992   -1.7835 C   0  0  0  0  0  0  0  0  0  0  0  0
  -25.3382    9.6393   -1.5940 C   0  0  0  0  0  0  0  0  0  0  0  0
  -24.7136   10.1724   -0.4880 C   0  0  0  0  0  0  0  0  0  0  0  0
  -23.3467   10.0928   -0.3555 C   0  0  0  0  0  0  0  0  0  0  0  0
  -24.5435    9.0355   -2.5407 C   0  0  0  0  0  0  0  0  0  0  0  0
  -23.1531    8.9515   -2.4118 C   0  0  0  0  0  0  0  0  0  0  0  0
  -22.5232    9.4824   -1.3082 C   0  0  0  0  0  0  0  0  0  0  0  0
  -20.1112    8.0339   -2.0696 C   0  0  1  0  0  0  0  0  0  0  0  0
  -19.5515    5.9600   -1.1405 C   0  0  2  0  0  0  0  0  0  0  0  0
  -20.1891    4.9329   -0.2116 C   0  0  0  0  0  0  0  0  0  0  0  0
  -18.4348    6.7074   -0.3937 C   0  0  1  0  0  0  0  0  0  0  0  0
  -17.7042    7.4457   -1.5259 C   0  0  1  0  0  0  0  0  0  0  0  0
  -15.3423    7.7722   -0.7693 C   0  0  0  0  0  0  0  0  0  0  0  0
  -14.5805    8.8215   -0.3036 C   0  0  0  0  0  0  0  0  0  0  0  0
  -11.3940    9.4500    1.5736 C   0  0  0  0  0  0  0  0  0  0  0  0
  -12.7291    9.4813    1.1979 C   0  0  0  0  0  0  0  0  0  0  0  0
  -18.6699    8.2752   -2.2921 C   0  0  1  0  0  0  0  0  0  0  0  0
   -9.9781    7.3213   -0.9495 F   0  0  0  0  0  0  0  0  0  0  0  0
  -10.9558   10.1284    2.6568 F   0  0  0  0  0  0  0  0  0  0  0  0
  -16.5980    8.2011   -1.0286 N   0  0  0  0  0  0  0  0  0  0  0  0
  -15.4108    9.8767   -0.2933 N   0  0  0  0  0  0  0  0  0  0  0  0
  -16.6147    9.4878   -0.7303 N   0  0  0  0  0  0  0  0  0  0  0  0
  -20.4942    6.8965   -1.4394 O   0  0  0  0  0  0  0  0  0  0  0  0
  -21.5366    5.2225   -0.1375 O   0  0  0  0  0  0  0  0  0  0  0  0
  -19.0645    7.6113    0.4480 O   0  0  0  0  0  0  0  0  0  0  0  0
  -18.4207    8.0619   -3.6716 O   0  0  0  0  0  0  0  0  0  0  0  0
  -20.7572    9.4285   -1.0639 S   0  0  0  0  0  0  0  0  0  0  0  0
  1  2  2  0
 18  1  1  0
  1 20  1  0
  2  3  1  0
  3  4  2  0
  3 22  1  0
  4 19  1  0
  6  5  1  0
  7  6  2  0
  9  6  1  0
  8  7  1  0
 11  8  2  0
 10  9  2  0
 11 10  1  0
 31 11  1  0
 21 12  1  0
 12 27  1  0
 12 31  1  1
 13 14  1  1
 15 13  1  0
 13 27  1  0
 14 28  1  0
 16 15  1  0
 15 29  1  1
 16 21  1  0
 16 24  1  1
 17 18  2  0
 17 24  1  0
 18 25  1  0
 19 20  2  0
 19 23  1  0
 21 30  1  6
 24 26  1  0
 25 26  2  0
M  END
$$$$
