
     RDKit          3D

 31 34  0  0  0  0  0  0  0  0999 V2000
  -13.3713    9.1656    0.0813 C   0  0  0  0  0  0  0  0  0  0  0  0
  -12.9427    8.3802    1.1306 C   0  0  0  0  0  0  0  0  0  0  0  0
  -11.6510    8.4099    1.6066 C   0  0  0  0  0  0  0  0  0  0  0  0
  -10.7188    9.2458    1.0374 C   0  0  0  0  0  0  0  0  0  0  0  0
  -26.9622    9.7125   -1.6971 C   0  0  0  0  0  0  0  0  0  0  0  0
  -25.4904    9.6547   -1.4931 C   0  0  0  0  0  0  0  0  0  0  0  0
  -24.6159    9.3385   -2.5094 C   0  0  0  0  0  0  0  0  0  0  0  0
  -23.2613    9.2976   -2.2735 C   0  0  0  0  0  0  0  0  0  0  0  0
  -24.9531    9.9221   -0.2553 C   0  0  0  0  0  0  0  0  0  0  0  0
  -23.5765    9.8820   -0.0092 C   0  0  0  0  0  0  0  0  0  0  0  0
  -22.6975    9.5667   -1.0213 C   0  0  0  0  0  0  0  0  0  0  0  0
  -20.3306    8.0229   -1.7351 C   0  0  1  0  0  0  0  0  0  0  0  0
  -19.6052    6.0604   -0.6864 C   0  0  2  0  0  0  0  0  0  0  0  0
  -20.1110    5.1045    0.3883 C   0  0  0  0  0  0  0  0  0  0  0  0
  -18.4515    6.9057   -0.1229 C   0  0  1  0  0  0  0  0  0  0  0  0
  -17.8617    7.5582   -1.3827 C   0  0  1  0  0  0  0  0  0  0  0  0
  -15.5375    8.0162   -0.5793 C   0  0  0  0  0  0  0  0  0  0  0  0
  -14.7398    9.1277   -0.4160 C   0  0  0  0  0  0  0  0  0  0  0  0
  -11.1236   10.0409   -0.0133 C   0  0  0  0  0  0  0  0  0  0  0  0
  -12.4277   10.0033   -0.4854 C   0  0  0  0  0  0  0  0  0  0  0  0
  -18.9276    8.2851   -2.1198 C   0  0  1  0  0  0  0  0  0  0  0  0
  -11.2423    7.6277    2.6446 F   0  0  0  0  0  0  0  0  0  0  0  0
  -10.2023   10.8593   -0.5673 F   0  0  0  0  0  0  0  0  0  0  0  0
  -16.7426    8.3882   -1.0662 N   0  0  0  0  0  0  0  0  0  0  0  0
  -15.4975   10.1616   -0.8157 N   0  0  0  0  0  0  0  0  0  0  0  0
  -16.6937    9.7013   -1.2018 N   0  0  0  0  0  0  0  0  0  0  0  0
  -20.6075    6.9374   -0.9720 O   0  0  0  0  0  0  0  0  0  0  0  0
  -21.3983    4.7422    0.0471 O   0  0  0  0  0  0  0  0  0  0  0  0
  -19.0315    7.8640    0.6939 O   0  0  0  0  0  0  0  0  0  0  0  0
  -18.8040    7.9536   -3.4929 O   0  0  0  0  0  0  0  0  0  0  0  0
  -20.9299    9.4843   -0.7976 S   0  0  0  0  0  0  0  0  0  0  0  0
  1  2  2  0
 18  1  1  0
  1 20  1  0
  2  3  1  0
  3  4  2  0
  3 22  1  0
  4 19  1  0
  6  5  1  0
  7  6  2  0
  9  6  1  0
  8  7  1  0
 11  8  2  0
 10  9  2  0
 11 10  1  0
 31 11  1  0
 21 12  1  0
 12 27  1  0
 12 31  1  1
 13 14  1  1
 15 13  1  0
 13 27  1  0
 14 28  1  0
 16 15  1  0
 15 29  1  1
 16 21  1  0
 16 24  1  1
 17 18  2  0
 17 24  1  0
 18 25  1  0
 19 20  2  0
 19 23  1  0
 21 30  1  6
 24 26  1  0
 25 26  2  0
M  END
$$$$
