
     RDKit          3D

 31 34  0  0  0  0  0  0  0  0999 V2000
  -13.2681    8.7945   -0.0348 C   0  0  0  0  0  0  0  0  0  0  0  0
  -12.4691    8.6878   -1.1536 C   0  0  0  0  0  0  0  0  0  0  0  0
  -11.1044    8.8666   -1.1164 C   0  0  0  0  0  0  0  0  0  0  0  0
  -10.4739    9.1657    0.0688 C   0  0  0  0  0  0  0  0  0  0  0  0
  -26.5561   10.5437   -2.7322 C   0  0  0  0  0  0  0  0  0  0  0  0
  -25.1497   10.2882   -2.3229 C   0  0  0  0  0  0  0  0  0  0  0  0
  -24.8253    9.4554   -1.2746 C   0  0  0  0  0  0  0  0  0  0  0  0
  -23.5090    9.2489   -0.9323 C   0  0  0  0  0  0  0  0  0  0  0  0
  -24.1132   10.8912   -2.9970 C   0  0  0  0  0  0  0  0  0  0  0  0
  -22.7727   10.6853   -2.6535 C   0  0  0  0  0  0  0  0  0  0  0  0
  -22.4424    9.8537   -1.6067 C   0  0  0  0  0  0  0  0  0  0  0  0
  -20.1047    8.2085   -2.1757 C   0  0  1  0  0  0  0  0  0  0  0  0
  -19.8234    6.0050   -1.4391 C   0  0  2  0  0  0  0  0  0  0  0  0
  -20.6475    4.9448   -0.7171 C   0  0  0  0  0  0  0  0  0  0  0  0
  -18.7550    6.5649   -0.4860 C   0  0  1  0  0  0  0  0  0  0  0  0
  -17.8355    7.3527   -1.4317 C   0  0  1  0  0  0  0  0  0  0  0  0
  -15.4275    7.8906   -1.0194 C   0  0  0  0  0  0  0  0  0  0  0  0
  -14.7114    8.6039   -0.0832 C   0  0  0  0  0  0  0  0  0  0  0  0
  -11.2517    9.2776    1.2013 C   0  0  0  0  0  0  0  0  0  0  0  0
  -12.6262    9.0955    1.1529 C   0  0  0  0  0  0  0  0  0  0  0  0
  -18.6328    8.3429   -2.2009 C   0  0  1  0  0  0  0  0  0  0  0  0
  -10.3279    8.7578   -2.2307 F   0  0  0  0  0  0  0  0  0  0  0  0
  -10.6252    9.5717    2.3617 F   0  0  0  0  0  0  0  0  0  0  0  0
  -16.7458    7.9483   -0.7250 N   0  0  0  0  0  0  0  0  0  0  0  0
  -15.6322    9.0830    0.7684 N   0  0  0  0  0  0  0  0  0  0  0  0
  -16.8451    8.6810    0.3696 N   0  0  0  0  0  0  0  0  0  0  0  0
  -20.6480    7.0486   -1.7321 O   0  0  0  0  0  0  0  0  0  0  0  0
  -21.6951    5.5902   -0.0918 O   0  0  0  0  0  0  0  0  0  0  0  0
  -19.4144    7.4253    0.3783 O   0  0  0  0  0  0  0  0  0  0  0  0
  -18.2306    8.2581   -3.5580 O   0  0  0  0  0  0  0  0  0  0  0  0
  -20.7634    9.5387   -1.0938 S   0  0  0  0  0  0  0  0  0  0  0  0
  1  2  2  0
 18  1  1  0
  1 20  1  0
  2  3  1  0
  3  4  2  0
  3 22  1  0
  4 19  1  0
  6  5  1  0
  7  6  2  0
  9  6  1  0
  8  7  1  0
 11  8  2  0
 10  9  2  0
 11 10  1  0
 31 11  1  0
 21 12  1  0
 12 27  1  0
 12 31  1  1
 13 14  1  1
 15 13  1  0
 13 27  1  0
 14 28  1  0
 16 15  1  0
 15 29  1  1
 16 21  1  0
 16 24  1  1
 17 18  2  0
 17 24  1  0
 18 25  1  0
 19 20  2  0
 19 23  1  0
 21 30  1  6
 24 26  1  0
 25 26  2  0
M  END
$$$$
