
     RDKit          3D

 31 34  0  0  0  0  0  0  0  0999 V2000
  -13.7386    9.2578    0.3345 C   0  0  0  0  0  0  0  0  0  0  0  0
  -13.3951   10.5775    0.1300 C   0  0  0  0  0  0  0  0  0  0  0  0
  -12.1075   11.0445    0.2708 C   0  0  0  0  0  0  0  0  0  0  0  0
  -11.0924   10.1887    0.6297 C   0  0  0  0  0  0  0  0  0  0  0  0
  -26.9020   11.4856    0.9340 C   0  0  0  0  0  0  0  0  0  0  0  0
  -25.5072   10.9733    0.8782 C   0  0  0  0  0  0  0  0  0  0  0  0
  -24.7883   10.6638    2.0117 C   0  0  0  0  0  0  0  0  0  0  0  0
  -23.4999   10.1921    1.9107 C   0  0  0  0  0  0  0  0  0  0  0  0
  -24.8859   10.7912   -0.3356 C   0  0  0  0  0  0  0  0  0  0  0  0
  -23.5761   10.3119   -0.4447 C   0  0  0  0  0  0  0  0  0  0  0  0
  -22.8525   10.0007    0.6849 C   0  0  0  0  0  0  0  0  0  0  0  0
  -20.6651    9.3311   -1.1213 C   0  0  1  0  0  0  0  0  0  0  0  0
  -20.2985    7.3201   -2.2609 C   0  0  2  0  0  0  0  0  0  0  0  0
  -21.0267    5.9979   -2.4753 C   0  0  0  0  0  0  0  0  0  0  0  0
  -19.1155    7.1075   -1.3024 C   0  0  1  0  0  0  0  0  0  0  0  0
  -18.3220    8.4152   -1.4470 C   0  0  1  0  0  0  0  0  0  0  0  0
  -15.9739    9.0387   -0.8509 C   0  0  0  0  0  0  0  0  0  0  0  0
  -15.1036    8.7723    0.1834 C   0  0  0  0  0  0  0  0  0  0  0  0
  -11.4111    8.8642    0.8397 C   0  0  0  0  0  0  0  0  0  0  0  0
  -12.7119    8.4039    0.6951 C   0  0  0  0  0  0  0  0  0  0  0  0
  -19.2082    9.5756   -1.1712 C   0  0  1  0  0  0  0  0  0  0  0  0
  -11.7834   12.3518    0.0652 F   0  0  0  0  0  0  0  0  0  0  0  0
  -10.4087    8.0296    1.1921 F   0  0  0  0  0  0  0  0  0  0  0  0
  -17.1493    8.4078   -0.6308 N   0  0  0  0  0  0  0  0  0  0  0  0
  -15.7880    7.9726    1.0170 N   0  0  0  0  0  0  0  0  0  0  0  0
  -17.0110    7.7643    0.5145 N   0  0  0  0  0  0  0  0  0  0  0  0
  -21.1507    8.1687   -1.6217 O   0  0  0  0  0  0  0  0  0  0  0  0
  -22.3526    6.1983   -2.1485 O   0  0  0  0  0  0  0  0  0  0  0  0
  -19.6566    7.0063   -0.0300 O   0  0  0  0  0  0  0  0  0  0  0  0
  -18.9828   10.5398   -2.1862 O   0  0  0  0  0  0  0  0  0  0  0  0
  -21.1765    9.3921    0.6418 S   0  0  0  0  0  0  0  0  0  0  0  0
  1  2  2  0
 18  1  1  0
  1 20  1  0
  2  3  1  0
  3  4  2  0
  3 22  1  0
  4 19  1  0
  6  5  1  0
  7  6  2  0
  9  6  1  0
  8  7  1  0
 11  8  2  0
 10  9  2  0
 11 10  1  0
 31 11  1  0
 21 12  1  0
 12 27  1  0
 12 31  1  1
 13 14  1  1
 15 13  1  0
 13 27  1  0
 14 28  1  0
 16 15  1  0
 15 29  1  1
 16 21  1  0
 16 24  1  1
 17 18  2  0
 17 24  1  0
 18 25  1  0
 19 20  2  0
 19 23  1  0
 21 30  1  6
 24 26  1  0
 25 26  2  0
M  END
$$$$
