
     RDKit          3D

 31 34  0  0  0  0  0  0  0  0999 V2000
  -13.3992    9.1745    0.2937 C   0  0  0  0  0  0  0  0  0  0  0  0
  -12.8253    8.1523    1.0197 C   0  0  0  0  0  0  0  0  0  0  0  0
  -11.5418    8.2166    1.5141 C   0  0  0  0  0  0  0  0  0  0  0  0
  -10.7671    9.3319    1.2955 C   0  0  0  0  0  0  0  0  0  0  0  0
  -26.9621    9.1570   -1.6542 C   0  0  0  0  0  0  0  0  0  0  0  0
  -25.4788    9.2331   -1.5848 C   0  0  0  0  0  0  0  0  0  0  0  0
  -24.7912    9.1717   -0.3928 C   0  0  0  0  0  0  0  0  0  0  0  0
  -23.4176    9.2459   -0.3779 C   0  0  0  0  0  0  0  0  0  0  0  0
  -24.7391    9.3696   -2.7366 C   0  0  0  0  0  0  0  0  0  0  0  0
  -23.3422    9.4458   -2.7278 C   0  0  0  0  0  0  0  0  0  0  0  0
  -22.6494    9.3848   -1.5393 C   0  0  0  0  0  0  0  0  0  0  0  0
  -20.2038    7.8669   -1.9985 C   0  0  1  0  0  0  0  0  0  0  0  0
  -19.7065    6.1186   -0.5243 C   0  0  2  0  0  0  0  0  0  0  0  0
  -20.3928    5.3800    0.6194 C   0  0  0  0  0  0  0  0  0  0  0  0
  -18.6110    7.0379    0.0396 C   0  0  1  0  0  0  0  0  0  0  0  0
  -17.8274    7.4436   -1.2182 C   0  0  1  0  0  0  0  0  0  0  0  0
  -15.5279    7.9664   -0.3838 C   0  0  0  0  0  0  0  0  0  0  0  0
  -14.7578    9.0979   -0.2259 C   0  0  0  0  0  0  0  0  0  0  0  0
  -11.3191   10.3673    0.5722 C   0  0  0  0  0  0  0  0  0  0  0  0
  -12.6134   10.2923    0.0784 C   0  0  0  0  0  0  0  0  0  0  0  0
  -18.7520    8.0378   -2.2181 C   0  0  1  0  0  0  0  0  0  0  0  0
  -10.9883    7.1981    2.2301 F   0  0  0  0  0  0  0  0  0  0  0  0
  -10.5520   11.4594    0.3614 F   0  0  0  0  0  0  0  0  0  0  0  0
  -16.7324    8.3034   -0.8970 N   0  0  0  0  0  0  0  0  0  0  0  0
  -15.5311   10.1080   -0.6556 N   0  0  0  0  0  0  0  0  0  0  0  0
  -16.7100    9.6149   -1.0539 N   0  0  0  0  0  0  0  0  0  0  0  0
  -20.6252    6.9415   -1.1023 O   0  0  0  0  0  0  0  0  0  0  0  0
  -21.4478    4.6719    0.0804 O   0  0  0  0  0  0  0  0  0  0  0  0
  -19.2621    8.1356    0.5810 O   0  0  0  0  0  0  0  0  0  0  0  0
  -18.4514    7.4611   -3.4782 O   0  0  0  0  0  0  0  0  0  0  0  0
  -20.8716    9.4815   -1.4319 S   0  0  0  0  0  0  0  0  0  0  0  0
  1  2  2  0
 18  1  1  0
  1 20  1  0
  2  3  1  0
  3  4  2  0
  3 22  1  0
  4 19  1  0
  6  5  1  0
  7  6  2  0
  9  6  1  0
  8  7  1  0
 11  8  2  0
 10  9  2  0
 11 10  1  0
 31 11  1  0
 21 12  1  0
 12 27  1  0
 12 31  1  1
 13 14  1  1
 15 13  1  0
 13 27  1  0
 14 28  1  0
 16 15  1  0
 15 29  1  6
 16 21  1  0
 16 24  1  1
 17 18  2  0
 17 24  1  0
 18 25  1  0
 19 20  2  0
 19 23  1  0
 21 30  1  6
 24 26  1  0
 25 26  2  0
M  END
$$$$
