
     RDKit          3D

 31 34  0  0  0  0  0  0  0  0999 V2000
  -13.2853    9.1290   -0.0934 C   0  0  0  0  0  0  0  0  0  0  0  0
  -12.3646    9.8024   -0.8682 C   0  0  0  0  0  0  0  0  0  0  0  0
  -11.0362    9.9126   -0.5231 C   0  0  0  0  0  0  0  0  0  0  0  0
  -10.5689    9.3399    0.6368 C   0  0  0  0  0  0  0  0  0  0  0  0
  -26.0546   10.2011   -4.4134 C   0  0  0  0  0  0  0  0  0  0  0  0
  -24.7863    9.9783   -3.6699 C   0  0  0  0  0  0  0  0  0  0  0  0
  -23.5888   10.5283   -4.0711 C   0  0  0  0  0  0  0  0  0  0  0  0
  -22.4403   10.2946   -3.3508 C   0  0  0  0  0  0  0  0  0  0  0  0
  -24.7774    9.1993   -2.5361 C   0  0  0  0  0  0  0  0  0  0  0  0
  -23.6128    8.9579   -1.7995 C   0  0  0  0  0  0  0  0  0  0  0  0
  -22.4128    9.5052   -2.1956 C   0  0  0  0  0  0  0  0  0  0  0  0
  -20.2028    7.6311   -1.8812 C   0  0  1  0  0  0  0  0  0  0  0  0
  -19.5964    5.9330   -0.3892 C   0  0  2  0  0  0  0  0  0  0  0  0
  -20.2103    5.2103    0.8046 C   0  0  0  0  0  0  0  0  0  0  0  0
  -18.4959    6.8898    0.0975 C   0  0  1  0  0  0  0  0  0  0  0  0
  -17.7829    7.2788   -1.2066 C   0  0  1  0  0  0  0  0  0  0  0  0
  -15.4273    7.8620   -0.5995 C   0  0  0  0  0  0  0  0  0  0  0  0
  -14.6889    9.0175   -0.4661 C   0  0  0  0  0  0  0  0  0  0  0  0
  -11.4706    8.6611    1.4282 C   0  0  0  0  0  0  0  0  0  0  0  0
  -12.8071    8.5560    1.0712 C   0  0  0  0  0  0  0  0  0  0  0  0
  -18.7674    7.8268   -2.1752 C   0  0  1  0  0  0  0  0  0  0  0  0
  -10.1381   10.5814   -1.2993 F   0  0  0  0  0  0  0  0  0  0  0  0
  -11.0041    8.1013    2.5660 F   0  0  0  0  0  0  0  0  0  0  0  0
  -16.6932    8.1697   -0.9608 N   0  0  0  0  0  0  0  0  0  0  0  0
  -15.5435   10.0119   -0.7554 N   0  0  0  0  0  0  0  0  0  0  0  0
  -16.7392    9.4869   -1.0493 N   0  0  0  0  0  0  0  0  0  0  0  0
  -20.5599    6.7208   -0.9425 O   0  0  0  0  0  0  0  0  0  0  0  0
  -21.4850    4.8236    0.4433 O   0  0  0  0  0  0  0  0  0  0  0  0
  -19.1447    7.9873    0.6420 O   0  0  0  0  0  0  0  0  0  0  0  0
  -18.5147    7.2237   -3.4335 O   0  0  0  0  0  0  0  0  0  0  0  0
  -20.8787    9.2455   -1.3237 S   0  0  0  0  0  0  0  0  0  0  0  0
  1  2  2  0
 18  1  1  0
  1 20  1  0
  2  3  1  0
  3  4  2  0
  3 22  1  0
  4 19  1  0
  6  5  1  0
  7  6  2  0
  9  6  1  0
  8  7  1  0
 11  8  2  0
 10  9  2  0
 11 10  1  0
 31 11  1  0
 21 12  1  0
 12 27  1  0
 12 31  1  1
 13 14  1  1
 15 13  1  0
 13 27  1  0
 14 28  1  0
 16 15  1  0
 15 29  1  6
 16 21  1  0
 16 24  1  1
 17 18  2  0
 17 24  1  0
 18 25  1  0
 19 20  2  0
 19 23  1  0
 21 30  1  6
 24 26  1  0
 25 26  2  0
M  END
$$$$
