
     RDKit          3D

 34 37  0  0  0  0  0  0  0  0999 V2000
  -21.1051  -39.8812   -7.7155 C   0  0  0  0  0  0  0  0  0  0  0  0
  -20.7608  -39.4627   -8.9821 C   0  0  0  0  0  0  0  0  0  0  0  0
  -19.4674  -39.0166   -9.2852 C   0  0  0  0  0  0  0  0  0  0  0  0
  -18.4967  -38.9846   -8.3196 C   0  0  0  0  0  0  0  0  0  0  0  0
  -18.8735  -39.4131   -7.0471 C   0  0  0  0  0  0  0  0  0  0  0  0
  -17.1052  -38.5492   -8.5864 C   0  0  1  0  0  0  0  0  0  0  0  0
  -16.3928  -39.3586   -9.6526 C   0  0  1  0  0  0  0  0  0  0  0  0
  -14.8482  -40.3707   -6.3284 N   0  0  0  0  0  0  0  0  0  0  0  0
  -20.4903  -40.2815   -5.4344 N   0  0  0  0  0  0  0  0  0  0  0  0
  -21.3428  -43.7606   -0.1318 O   0  0  0  0  0  0  0  0  0  0  0  0
  -16.9058  -40.7736   -9.7598 C   0  0  0  0  0  0  0  0  0  0  0  0
  -20.4885  -41.6548   -2.9575 N   0  0  0  0  0  0  0  0  0  0  0  0
  -15.7940  -40.1627   -7.1671 C   0  0  0  0  0  0  0  0  0  0  0  0
  -21.3829  -41.3424   -5.1649 C   0  0  0  0  0  0  0  0  0  0  0  0
  -21.4054  -41.9927   -3.8696 C   0  0  0  0  0  0  0  0  0  0  0  0
  -20.4584  -42.2248   -1.7348 C   0  0  0  0  0  0  0  0  0  0  0  0
  -21.3957  -43.1815   -1.4129 C   0  0  0  0  0  0  0  0  0  0  0  0
  -22.3276  -42.9523   -3.5153 C   0  0  0  0  0  0  0  0  0  0  0  0
  -16.9388  -37.0936   -8.8290 C   0  0  0  0  0  0  0  0  0  0  0  0
  -23.1044  -45.1426    0.2033 F   0  0  0  0  0  0  0  0  0  0  0  0
  -21.7306  -45.1199    0.0328 C   0  0  0  0  0  0  0  0  0  0  0  0
  -22.3202  -43.5360   -2.3044 N   0  0  0  0  0  0  0  0  0  0  0  0
  -22.1487  -41.6833   -6.1104 O   0  0  0  0  0  0  0  0  0  0  0  0
  -20.1313  -39.8501   -6.7375 C   0  0  0  0  0  0  0  0  0  0  0  0
  -19.2829  -38.6111  -10.5456 F   0  0  0  0  0  0  0  0  0  0  0  0
  -16.3373  -38.8637   -7.3413 N   0  0  0  0  0  0  0  0  0  0  0  0
  -16.4504  -41.5399   -8.1459 S   0  0  0  0  0  0  0  0  0  0  0  0
  -16.1494  -38.6865  -10.9241 C   0  0  0  0  0  0  0  0  0  0  0  0
  -17.1255  -37.9650  -11.5510 C   0  0  0  0  0  0  0  0  0  0  0  0
  -16.8548  -37.3525  -12.7512 C   0  0  0  0  0  0  0  0  0  0  0  0
  -15.6216  -37.4344  -13.3622 C   0  0  0  0  0  0  0  0  0  0  0  0
  -14.6320  -38.1605  -12.7358 C   0  0  0  0  0  0  0  0  0  0  0  0
  -14.9033  -38.7676  -11.5445 C   0  0  0  0  0  0  0  0  0  0  0  0
  -14.9133  -41.0365   -5.5558 H   0  0  0  0  0  0  0  0  0  0  0  0
  1  2  2  0
 24  1  1  0
  2  3  1  0
  4  3  2  0
  3 25  1  0
  5  4  1  0
  4  6  1  0
 24  5  2  0
  6  7  1  0
  6 19  1  6
  6 26  1  0
  7 11  1  0
  7 28  1  6
 13  8  2  0
 14  9  1  0
  9 24  1  0
 17 10  1  0
 10 21  1  0
 11 27  1  0
 12 15  2  0
 16 12  1  0
 26 13  1  0
 13 27  1  0
 15 14  1  0
 14 23  2  0
 15 18  1  0
 16 17  2  0
 17 22  1  0
 18 22  2  0
 21 20  1  0
 28 29  2  0
 28 33  1  0
 29 30  1  0
 30 31  2  0
 31 32  1  0
 32 33  2  0
  8 34  1  0
M  END
$$$$
