
     RDKit          3D

 34 37  0  0  0  0  0  0  0  0999 V2000
  -21.4535  -39.5605   -7.8413 C   0  0  0  0  0  0  0  0  0  0  0  0
  -21.0661  -39.0425   -9.0577 C   0  0  0  0  0  0  0  0  0  0  0  0
  -19.7376  -38.6783   -9.3146 C   0  0  0  0  0  0  0  0  0  0  0  0
  -18.7745  -38.8297   -8.3527 C   0  0  0  0  0  0  0  0  0  0  0  0
  -19.1953  -39.3554   -7.1314 C   0  0  0  0  0  0  0  0  0  0  0  0
  -17.3494  -38.4883   -8.5748 C   0  0  1  0  0  0  0  0  0  0  0  0
  -16.6888  -39.2694   -9.6942 C   0  0  1  0  0  0  0  0  0  0  0  0
  -15.2751  -40.6496   -6.4450 N   0  0  0  0  0  0  0  0  0  0  0  0
  -20.8911  -40.2475   -5.6157 N   0  0  0  0  0  0  0  0  0  0  0  0
  -21.2642  -44.1793   -0.5782 O   0  0  0  0  0  0  0  0  0  0  0  0
  -17.3107  -40.6267   -9.9128 C   0  0  0  0  0  0  0  0  0  0  0  0
  -20.5173  -41.9650   -3.3509 N   0  0  0  0  0  0  0  0  0  0  0  0
  -16.1898  -40.3040   -7.2726 C   0  0  0  0  0  0  0  0  0  0  0  0
  -21.5676  -41.4770   -5.4553 C   0  0  0  0  0  0  0  0  0  0  0  0
  -21.5238  -42.1985   -4.1989 C   0  0  0  0  0  0  0  0  0  0  0  0
  -20.4222  -42.6053   -2.1669 C   0  0  0  0  0  0  0  0  0  0  0  0
  -21.3861  -43.5254   -1.8179 C   0  0  0  0  0  0  0  0  0  0  0  0
  -22.4702  -43.1242   -3.8191 C   0  0  0  0  0  0  0  0  0  0  0  0
  -17.0649  -37.0366   -8.7045 C   0  0  0  0  0  0  0  0  0  0  0  0
  -22.6138  -44.2299    1.2389 F   0  0  0  0  0  0  0  0  0  0  0  0
  -21.6281  -43.4874    0.6110 C   0  0  0  0  0  0  0  0  0  0  0  0
  -22.3996  -43.7762   -2.6456 N   0  0  0  0  0  0  0  0  0  0  0  0
  -22.2035  -41.9013   -6.4614 O   0  0  0  0  0  0  0  0  0  0  0  0
  -20.4876  -39.7143   -6.8672 C   0  0  0  0  0  0  0  0  0  0  0  0
  -19.5105  -38.1604  -10.5259 F   0  0  0  0  0  0  0  0  0  0  0  0
  -16.6260  -38.9562   -7.3515 N   0  0  0  0  0  0  0  0  0  0  0  0
  -16.9397  -41.5465   -8.3585 S   0  0  0  0  0  0  0  0  0  0  0  0
  -16.3755  -38.5251  -10.9088 C   0  0  0  0  0  0  0  0  0  0  0  0
  -17.3419  -38.1971  -11.8170 C   0  0  0  0  0  0  0  0  0  0  0  0
  -17.0016  -37.4999  -12.9514 C   0  0  0  0  0  0  0  0  0  0  0  0
  -15.7068  -37.1094  -13.2195 C   0  0  0  0  0  0  0  0  0  0  0  0
  -14.7265  -37.4367  -12.3080 C   0  0  0  0  0  0  0  0  0  0  0  0
  -15.0670  -38.1289  -11.1827 C   0  0  0  0  0  0  0  0  0  0  0  0
  -15.3143  -40.4517   -5.4431 H   0  0  0  0  0  0  0  0  0  0  0  0
  1  2  2  0
 24  1  1  0
  2  3  1  0
  4  3  2  0
  3 25  1  0
  5  4  1  0
  4  6  1  0
 24  5  2  0
  6  7  1  0
  6 19  1  6
  6 26  1  0
  7 11  1  0
  7 28  1  6
 13  8  2  0
 14  9  1  0
  9 24  1  0
 17 10  1  0
 10 21  1  0
 11 27  1  0
 12 15  2  0
 16 12  1  0
 26 13  1  0
 13 27  1  0
 15 14  1  0
 14 23  2  0
 15 18  1  0
 16 17  2  0
 17 22  1  0
 18 22  2  0
 21 20  1  0
 28 29  2  0
 28 33  1  0
 29 30  1  0
 30 31  2  0
 31 32  1  0
 32 33  2  0
  8 34  1  0
M  END
$$$$
