
     RDKit          3D

 34 37  0  0  0  0  0  0  0  0999 V2000
  -21.4665  -39.7558   -7.5743 C   0  0  0  0  0  0  0  0  0  0  0  0
  -21.1978  -39.2799   -8.8389 C   0  0  0  0  0  0  0  0  0  0  0  0
  -19.9149  -38.8551   -9.2098 C   0  0  0  0  0  0  0  0  0  0  0  0
  -18.8789  -38.9027   -8.3154 C   0  0  0  0  0  0  0  0  0  0  0  0
  -19.1799  -39.3881   -7.0430 C   0  0  0  0  0  0  0  0  0  0  0  0
  -17.4960  -38.4935   -8.6576 C   0  0  1  0  0  0  0  0  0  0  0  0
  -16.8656  -39.3018   -9.7751 C   0  0  1  0  0  0  0  0  0  0  0  0
  -15.1520  -40.3974   -6.5620 N   0  0  0  0  0  0  0  0  0  0  0  0
  -20.7079  -40.2954   -5.3664 N   0  0  0  0  0  0  0  0  0  0  0  0
  -21.5669  -43.7751   -0.0654 O   0  0  0  0  0  0  0  0  0  0  0  0
  -17.4156  -40.7036   -9.8714 C   0  0  0  0  0  0  0  0  0  0  0  0
  -20.7287  -41.6484   -2.8802 N   0  0  0  0  0  0  0  0  0  0  0  0
  -16.1404  -40.1563   -7.3405 C   0  0  0  0  0  0  0  0  0  0  0  0
  -21.6216  -41.3358   -5.0882 C   0  0  0  0  0  0  0  0  0  0  0  0
  -21.6401  -41.9919   -3.7957 C   0  0  0  0  0  0  0  0  0  0  0  0
  -20.6952  -42.2233   -1.6599 C   0  0  0  0  0  0  0  0  0  0  0  0
  -21.6232  -43.1911   -1.3441 C   0  0  0  0  0  0  0  0  0  0  0  0
  -22.5530  -42.9626   -3.4475 C   0  0  0  0  0  0  0  0  0  0  0  0
  -17.3115  -37.0384   -8.8894 C   0  0  0  0  0  0  0  0  0  0  0  0
  -21.5969  -46.0155    0.2591 F   0  0  0  0  0  0  0  0  0  0  0  0
  -20.7529  -44.9245    0.1383 C   0  0  0  0  0  0  0  0  0  0  0  0
  -22.5420  -43.5514   -2.2391 N   0  0  0  0  0  0  0  0  0  0  0  0
  -22.4099  -41.6533   -6.0233 O   0  0  0  0  0  0  0  0  0  0  0  0
  -20.4266  -39.8051   -6.6678 C   0  0  0  0  0  0  0  0  0  0  0  0
  -19.8054  -38.3880  -10.4575 F   0  0  0  0  0  0  0  0  0  0  0  0
  -16.6637  -38.8434   -7.4644 N   0  0  0  0  0  0  0  0  0  0  0  0
  -16.8837  -41.5040   -8.2979 S   0  0  0  0  0  0  0  0  0  0  0  0
  -16.6822  -38.6160  -11.0492 C   0  0  0  0  0  0  0  0  0  0  0  0
  -17.5804  -38.7491  -12.0699 C   0  0  0  0  0  0  0  0  0  0  0  0
  -17.3655  -38.0894  -13.2563 C   0  0  0  0  0  0  0  0  0  0  0  0
  -16.2655  -37.2853  -13.4671 C   0  0  0  0  0  0  0  0  0  0  0  0
  -15.3551  -37.1462  -12.4422 C   0  0  0  0  0  0  0  0  0  0  0  0
  -15.5708  -37.8022  -11.2655 C   0  0  0  0  0  0  0  0  0  0  0  0
  -14.7312  -39.6969   -5.9482 H   0  0  0  0  0  0  0  0  0  0  0  0
  1  2  2  0
 24  1  1  0
  2  3  1  0
  4  3  2  0
  3 25  1  0
  5  4  1  0
  4  6  1  0
 24  5  2  0
  6  7  1  0
  6 19  1  6
  6 26  1  0
  7 11  1  0
  7 28  1  6
 13  8  2  0
 14  9  1  0
  9 24  1  0
 17 10  1  0
 10 21  1  0
 11 27  1  0
 12 15  2  0
 16 12  1  0
 26 13  1  0
 13 27  1  0
 15 14  1  0
 14 23  2  0
 15 18  1  0
 16 17  2  0
 17 22  1  0
 18 22  2  0
 21 20  1  0
 28 29  2  0
 28 33  1  0
 29 30  1  0
 30 31  2  0
 31 32  1  0
 32 33  2  0
  8 34  1  0
M  END
$$$$
