
     RDKit          3D

 34 37  0  0  0  0  0  0  0  0999 V2000
  -16.6641  -37.7179  -12.3578 C   0  0  0  0  0  0  0  0  0  0  0  0
  -18.0025  -37.9498  -12.1280 C   0  0  0  0  0  0  0  0  0  0  0  0
  -18.4373  -38.8295  -11.1275 C   0  0  0  0  0  0  0  0  0  0  0  0
  -17.5333  -39.4908  -10.3394 C   0  0  0  0  0  0  0  0  0  0  0  0
  -16.1859  -39.2374  -10.5948 C   0  0  0  0  0  0  0  0  0  0  0  0
  -17.9329  -40.4113   -9.2487 C   0  0  1  0  0  0  0  0  0  0  0  0
  -18.5066  -39.7187   -8.0277 C   0  0  1  0  0  0  0  0  0  0  0  0
  -15.0447  -40.9419   -7.0381 N   0  0  0  0  0  0  0  0  0  0  0  0
  -14.3706  -38.1412  -11.8080 N   0  0  0  0  0  0  0  0  0  0  0  0
   -8.5743  -35.8931  -10.2794 O   0  0  0  0  0  0  0  0  0  0  0  0
  -17.9814  -38.3160   -7.8444 C   0  0  0  0  0  0  0  0  0  0  0  0
  -11.9047  -37.2962  -10.5763 N   0  0  0  0  0  0  0  0  0  0  0  0
  -15.9103  -40.3244   -7.7525 C   0  0  0  0  0  0  0  0  0  0  0  0
  -13.8053  -36.8581  -11.9784 C   0  0  0  0  0  0  0  0  0  0  0  0
  -12.4443  -36.5775  -11.5657 C   0  0  0  0  0  0  0  0  0  0  0  0
  -10.6431  -37.0819  -10.1482 C   0  0  0  0  0  0  0  0  0  0  0  0
   -9.8865  -36.0968  -10.7438 C   0  0  0  0  0  0  0  0  0  0  0  0
  -11.6608  -35.6008  -12.1393 C   0  0  0  0  0  0  0  0  0  0  0  0
  -18.7974  -41.5436   -9.6684 C   0  0  0  0  0  0  0  0  0  0  0  0
   -8.5251  -34.2927  -11.8800 F   0  0  0  0  0  0  0  0  0  0  0  0
   -7.7497  -34.9308  -10.9267 C   0  0  0  0  0  0  0  0  0  0  0  0
  -10.4012  -35.3665  -11.7322 N   0  0  0  0  0  0  0  0  0  0  0  0
  -14.5501  -35.9839  -12.5053 O   0  0  0  0  0  0  0  0  0  0  0  0
  -15.7479  -38.3825  -11.5675 C   0  0  0  0  0  0  0  0  0  0  0  0
  -19.7622  -38.9825  -11.0367 F   0  0  0  0  0  0  0  0  0  0  0  0
  -16.6606  -41.0128   -8.7404 N   0  0  0  0  0  0  0  0  0  0  0  0
  -16.1847  -38.5501   -7.5032 S   0  0  0  0  0  0  0  0  0  0  0  0
  -19.9381  -39.8823   -7.8006 C   0  0  0  0  0  0  0  0  0  0  0  0
  -20.8639  -39.2556   -8.5859 C   0  0  0  0  0  0  0  0  0  0  0  0
  -22.2031  -39.4328   -8.3329 C   0  0  0  0  0  0  0  0  0  0  0  0
  -22.6630  -40.2281   -7.3048 C   0  0  0  0  0  0  0  0  0  0  0  0
  -21.7351  -40.8634   -6.5085 C   0  0  0  0  0  0  0  0  0  0  0  0
  -20.4063  -40.6857   -6.7617 C   0  0  0  0  0  0  0  0  0  0  0  0
  -14.1098  -41.1883   -7.3693 H   0  0  0  0  0  0  0  0  0  0  0  0
  1  2  2  0
 24  1  1  0
  2  3  1  0
  4  3  2  0
  3 25  1  0
  5  4  1  0
  4  6  1  0
 24  5  2  0
  6  7  1  0
  6 19  1  6
  6 26  1  0
  7 11  1  0
  7 28  1  6
 13  8  2  0
 14  9  1  0
  9 24  1  0
 17 10  1  0
 10 21  1  0
 11 27  1  0
 12 15  2  0
 16 12  1  0
 26 13  1  0
 13 27  1  0
 15 14  1  0
 14 23  2  0
 15 18  1  0
 16 17  2  0
 17 22  1  0
 18 22  2  0
 21 20  1  0
 28 29  2  0
 28 33  1  0
 29 30  1  0
 30 31  2  0
 31 32  1  0
 32 33  2  0
  8 34  1  0
M  END
$$$$
