
     RDKit          3D

 34 37  0  0  0  0  0  0  0  0999 V2000
  -21.1909  -39.5605   -7.7603 C   0  0  0  0  0  0  0  0  0  0  0  0
  -20.8506  -39.0788   -9.0054 C   0  0  0  0  0  0  0  0  0  0  0  0
  -19.5473  -38.6583   -9.3023 C   0  0  0  0  0  0  0  0  0  0  0  0
  -18.5624  -38.7159   -8.3523 C   0  0  0  0  0  0  0  0  0  0  0  0
  -18.9356  -39.2069   -7.1014 C   0  0  0  0  0  0  0  0  0  0  0  0
  -17.1610  -38.3116   -8.6152 C   0  0  1  0  0  0  0  0  0  0  0  0
  -16.4863  -39.0899   -9.7282 C   0  0  1  0  0  0  0  0  0  0  0  0
  -14.9379  -40.3099   -6.4763 N   0  0  0  0  0  0  0  0  0  0  0  0
  -20.5580  -40.1161   -5.5171 N   0  0  0  0  0  0  0  0  0  0  0  0
  -21.5364  -43.7542   -0.3443 O   0  0  0  0  0  0  0  0  0  0  0  0
  -17.0449  -40.4814   -9.8969 C   0  0  0  0  0  0  0  0  0  0  0  0
  -20.5793  -41.6086   -3.1064 N   0  0  0  0  0  0  0  0  0  0  0  0
  -15.8858  -40.0321   -7.2920 C   0  0  0  0  0  0  0  0  0  0  0  0
  -21.4638  -41.1773   -5.2976 C   0  0  0  0  0  0  0  0  0  0  0  0
  -21.5168  -41.8666   -4.0236 C   0  0  0  0  0  0  0  0  0  0  0  0
  -20.5756  -42.2183   -1.9026 C   0  0  0  0  0  0  0  0  0  0  0  0
  -21.5626  -43.1323   -1.6060 C   0  0  0  0  0  0  0  0  0  0  0  0
  -22.4887  -42.7854   -3.6948 C   0  0  0  0  0  0  0  0  0  0  0  0
  -16.9513  -36.8518   -8.7895 C   0  0  0  0  0  0  0  0  0  0  0  0
  -20.2621  -45.5857    0.0394 F   0  0  0  0  0  0  0  0  0  0  0  0
  -20.2942  -44.2087    0.1807 C   0  0  0  0  0  0  0  0  0  0  0  0
  -22.5085  -43.4071   -2.5031 N   0  0  0  0  0  0  0  0  0  0  0  0
  -22.2136  -41.4827   -6.2678 O   0  0  0  0  0  0  0  0  0  0  0  0
  -20.2029  -39.6199   -6.7981 C   0  0  0  0  0  0  0  0  0  0  0  0
  -19.3669  -38.1847  -10.5394 F   0  0  0  0  0  0  0  0  0  0  0  0
  -16.3896  -38.7099   -7.3965 N   0  0  0  0  0  0  0  0  0  0  0  0
  -16.5962  -41.3390   -8.3277 S   0  0  0  0  0  0  0  0  0  0  0  0
  -16.2359  -38.3648  -10.9687 C   0  0  0  0  0  0  0  0  0  0  0  0
  -15.0804  -37.6634  -11.1673 C   0  0  0  0  0  0  0  0  0  0  0  0
  -14.8879  -36.9892  -12.3494 C   0  0  0  0  0  0  0  0  0  0  0  0
  -15.8239  -36.9883  -13.3617 C   0  0  0  0  0  0  0  0  0  0  0  0
  -16.9919  -37.6935  -13.1685 C   0  0  0  0  0  0  0  0  0  0  0  0
  -17.1806  -38.3619  -11.9942 C   0  0  0  0  0  0  0  0  0  0  0  0
  -15.0898  -40.6990   -5.5436 H   0  0  0  0  0  0  0  0  0  0  0  0
  1  2  2  0
 24  1  1  0
  2  3  1  0
  4  3  2  0
  3 25  1  0
  5  4  1  0
  4  6  1  0
 24  5  2  0
  6  7  1  0
  6 19  1  6
  6 26  1  0
  7 11  1  0
  7 28  1  6
 13  8  2  0
 14  9  1  0
  9 24  1  0
 17 10  1  0
 10 21  1  0
 11 27  1  0
 12 15  2  0
 16 12  1  0
 26 13  1  0
 13 27  1  0
 15 14  1  0
 14 23  2  0
 15 18  1  0
 16 17  2  0
 17 22  1  0
 18 22  2  0
 21 20  1  0
 28 29  2  0
 28 33  1  0
 29 30  1  0
 30 31  2  0
 31 32  1  0
 32 33  2  0
  8 34  1  0
M  END
$$$$
