
     RDKit          3D

 34 37  0  0  0  0  0  0  0  0999 V2000
  -21.1652  -40.2026   -7.6678 C   0  0  0  0  0  0  0  0  0  0  0  0
  -20.9772  -39.3104   -8.7005 C   0  0  0  0  0  0  0  0  0  0  0  0
  -19.7134  -38.7836   -8.9990 C   0  0  0  0  0  0  0  0  0  0  0  0
  -18.6157  -39.1459   -8.2645 C   0  0  0  0  0  0  0  0  0  0  0  0
  -18.8358  -40.0496   -7.2252 C   0  0  0  0  0  0  0  0  0  0  0  0
  -17.2506  -38.6440   -8.5497 C   0  0  1  0  0  0  0  0  0  0  0  0
  -16.5427  -39.3702   -9.6771 C   0  0  1  0  0  0  0  0  0  0  0  0
  -14.8568  -40.4884   -6.4572 N   0  0  0  0  0  0  0  0  0  0  0  0
  -20.2612  -41.4893   -5.8599 N   0  0  0  0  0  0  0  0  0  0  0  0
  -21.4013  -43.6613    0.0574 O   0  0  0  0  0  0  0  0  0  0  0  0
  -17.0058  -40.7968   -9.8420 C   0  0  0  0  0  0  0  0  0  0  0  0
  -20.5057  -41.8506   -2.9539 N   0  0  0  0  0  0  0  0  0  0  0  0
  -15.8358  -40.2751   -7.2555 C   0  0  0  0  0  0  0  0  0  0  0  0
  -21.4700  -41.6276   -5.1426 C   0  0  0  0  0  0  0  0  0  0  0  0
  -21.4873  -42.1760   -3.8009 C   0  0  0  0  0  0  0  0  0  0  0  0
  -20.4672  -42.3291   -1.6928 C   0  0  0  0  0  0  0  0  0  0  0  0
  -21.4642  -43.1762   -1.2616 C   0  0  0  0  0  0  0  0  0  0  0  0
  -22.4680  -43.0249   -3.3379 C   0  0  0  0  0  0  0  0  0  0  0  0
  -17.1463  -37.1726   -8.7216 C   0  0  0  0  0  0  0  0  0  0  0  0
  -21.9223  -45.8546    0.2657 F   0  0  0  0  0  0  0  0  0  0  0  0
  -22.3935  -44.5757    0.5096 C   0  0  0  0  0  0  0  0  0  0  0  0
  -22.4539  -43.5158   -2.0866 N   0  0  0  0  0  0  0  0  0  0  0  0
  -22.5193  -41.2486   -5.7359 O   0  0  0  0  0  0  0  0  0  0  0  0
  -20.0629  -40.5707   -6.9229 C   0  0  0  0  0  0  0  0  0  0  0  0
  -19.6831  -37.9054  -10.0064 F   0  0  0  0  0  0  0  0  0  0  0  0
  -16.4323  -38.9910   -7.3460 N   0  0  0  0  0  0  0  0  0  0  0  0
  -16.4712  -41.6255   -8.2842 S   0  0  0  0  0  0  0  0  0  0  0  0
  -16.3650  -38.6257  -10.9188 C   0  0  0  0  0  0  0  0  0  0  0  0
  -15.1649  -38.0638  -11.2513 C   0  0  0  0  0  0  0  0  0  0  0  0
  -15.0431  -37.3654  -12.4287 C   0  0  0  0  0  0  0  0  0  0  0  0
  -16.0950  -37.2031  -13.3050 C   0  0  0  0  0  0  0  0  0  0  0  0
  -17.3086  -37.7670  -12.9764 C   0  0  0  0  0  0  0  0  0  0  0  0
  -17.4269  -38.4598  -11.8070 C   0  0  0  0  0  0  0  0  0  0  0  0
  -14.8114  -40.1179   -5.5058 H   0  0  0  0  0  0  0  0  0  0  0  0
  1  2  2  0
 24  1  1  0
  2  3  1  0
  4  3  2  0
  3 25  1  0
  5  4  1  0
  4  6  1  0
 24  5  2  0
  6  7  1  0
  6 19  1  6
  6 26  1  0
  7 11  1  0
  7 28  1  6
 13  8  2  0
 14  9  1  0
  9 24  1  0
 17 10  1  0
 10 21  1  0
 11 27  1  0
 12 15  2  0
 16 12  1  0
 26 13  1  0
 13 27  1  0
 15 14  1  0
 14 23  2  0
 15 18  1  0
 16 17  2  0
 17 22  1  0
 18 22  2  0
 21 20  1  0
 28 29  2  0
 28 33  1  0
 29 30  1  0
 30 31  2  0
 31 32  1  0
 32 33  2  0
  8 34  1  0
M  END
$$$$
