
     RDKit          3D

 34 37  0  0  0  0  0  0  0  0999 V2000
  -21.1567  -40.0501   -7.4557 C   0  0  0  0  0  0  0  0  0  0  0  0
  -21.0102  -39.1239   -8.4650 C   0  0  0  0  0  0  0  0  0  0  0  0
  -19.7594  -38.5856   -8.7959 C   0  0  0  0  0  0  0  0  0  0  0  0
  -18.6332  -38.9702   -8.1181 C   0  0  0  0  0  0  0  0  0  0  0  0
  -18.8114  -39.9081   -7.1015 C   0  0  0  0  0  0  0  0  0  0  0  0
  -17.2807  -38.4570   -8.4407 C   0  0  1  0  0  0  0  0  0  0  0  0
  -16.5695  -39.2226   -9.5396 C   0  0  1  0  0  0  0  0  0  0  0  0
  -14.8327  -40.1544   -6.2875 N   0  0  0  0  0  0  0  0  0  0  0  0
  -20.1809  -41.3945   -5.7289 N   0  0  0  0  0  0  0  0  0  0  0  0
  -21.1613  -43.6885    0.1702 O   0  0  0  0  0  0  0  0  0  0  0  0
  -17.0066  -40.6638   -9.6319 C   0  0  0  0  0  0  0  0  0  0  0  0
  -20.3522  -41.8365   -2.8405 N   0  0  0  0  0  0  0  0  0  0  0  0
  -15.8229  -39.9978   -7.0850 C   0  0  0  0  0  0  0  0  0  0  0  0
  -21.3749  -41.5897   -4.9999 C   0  0  0  0  0  0  0  0  0  0  0  0
  -21.3546  -42.1551   -3.6653 C   0  0  0  0  0  0  0  0  0  0  0  0
  -20.2786  -42.3307   -1.5870 C   0  0  0  0  0  0  0  0  0  0  0  0
  -21.2609  -43.1871   -1.1405 C   0  0  0  0  0  0  0  0  0  0  0  0
  -22.3198  -43.0135   -3.1873 C   0  0  0  0  0  0  0  0  0  0  0  0
  -17.2063  -36.9937   -8.6832 C   0  0  0  0  0  0  0  0  0  0  0  0
  -21.1661  -45.8552    0.8268 F   0  0  0  0  0  0  0  0  0  0  0  0
  -21.9916  -44.7753    0.5634 C   0  0  0  0  0  0  0  0  0  0  0  0
  -22.2707  -43.5202   -1.9432 N   0  0  0  0  0  0  0  0  0  0  0  0
  -22.4452  -41.2455   -5.5765 O   0  0  0  0  0  0  0  0  0  0  0  0
  -20.0254  -40.4409   -6.7679 C   0  0  0  0  0  0  0  0  0  0  0  0
  -19.7695  -37.6745   -9.7741 F   0  0  0  0  0  0  0  0  0  0  0  0
  -16.4448  -38.7309   -7.2302 N   0  0  0  0  0  0  0  0  0  0  0  0
  -16.4418  -41.4073   -8.0420 S   0  0  0  0  0  0  0  0  0  0  0  0
  -16.4176  -38.5349  -10.8168 C   0  0  0  0  0  0  0  0  0  0  0  0
  -15.2395  -37.9438  -11.1762 C   0  0  0  0  0  0  0  0  0  0  0  0
  -15.1418  -37.3010  -12.3870 C   0  0  0  0  0  0  0  0  0  0  0  0
  -16.1969  -37.2242  -13.2712 C   0  0  0  0  0  0  0  0  0  0  0  0
  -17.3884  -37.8180  -12.9157 C   0  0  0  0  0  0  0  0  0  0  0  0
  -17.4828  -38.4554  -11.7131 C   0  0  0  0  0  0  0  0  0  0  0  0
  -14.9307  -40.2418   -5.2740 H   0  0  0  0  0  0  0  0  0  0  0  0
  1  2  2  0
 24  1  1  0
  2  3  1  0
  4  3  2  0
  3 25  1  0
  5  4  1  0
  4  6  1  0
 24  5  2  0
  6  7  1  0
  6 19  1  6
  6 26  1  0
  7 11  1  0
  7 28  1  6
 13  8  2  0
 14  9  1  0
  9 24  1  0
 17 10  1  0
 10 21  1  0
 11 27  1  0
 12 15  2  0
 16 12  1  0
 26 13  1  0
 13 27  1  0
 15 14  1  0
 14 23  2  0
 15 18  1  0
 16 17  2  0
 17 22  1  0
 18 22  2  0
 21 20  1  0
 28 29  2  0
 28 33  1  0
 29 30  1  0
 30 31  2  0
 31 32  1  0
 32 33  2  0
  8 34  1  0
M  END
$$$$
