
     RDKit          3D

 34 37  0  0  0  0  0  0  0  0999 V2000
  -21.1343  -39.9763   -7.6332 C   0  0  0  0  0  0  0  0  0  0  0  0
  -20.8923  -38.9463   -8.5156 C   0  0  0  0  0  0  0  0  0  0  0  0
  -19.5963  -38.4704   -8.7560 C   0  0  0  0  0  0  0  0  0  0  0  0
  -18.5203  -39.0230   -8.1138 C   0  0  0  0  0  0  0  0  0  0  0  0
  -18.7950  -40.0629   -7.2260 C   0  0  0  0  0  0  0  0  0  0  0  0
  -17.1250  -38.5809   -8.3473 C   0  0  1  0  0  0  0  0  0  0  0  0
  -16.3763  -39.4008   -9.3801 C   0  0  1  0  0  0  0  0  0  0  0  0
  -14.9204  -40.3499   -5.9978 N   0  0  0  0  0  0  0  0  0  0  0  0
  -20.3077  -41.5966   -6.0735 N   0  0  0  0  0  0  0  0  0  0  0  0
  -21.0296  -44.2874   -0.3069 O   0  0  0  0  0  0  0  0  0  0  0  0
  -16.8754  -40.8212   -9.4799 C   0  0  0  0  0  0  0  0  0  0  0  0
  -20.2248  -42.3286   -3.2503 N   0  0  0  0  0  0  0  0  0  0  0  0
  -15.8431  -40.1622   -6.8663 C   0  0  0  0  0  0  0  0  0  0  0  0
  -21.4297  -41.6601   -5.2179 C   0  0  0  0  0  0  0  0  0  0  0  0
  -21.3652  -42.3543   -3.9470 C   0  0  0  0  0  0  0  0  0  0  0  0
  -20.1036  -42.9556   -2.0616 C   0  0  0  0  0  0  0  0  0  0  0  0
  -21.1816  -43.6423   -1.5478 C   0  0  0  0  0  0  0  0  0  0  0  0
  -22.4232  -43.0497   -3.4048 C   0  0  0  0  0  0  0  0  0  0  0  0
  -16.9625  -37.1279   -8.6076 C   0  0  0  0  0  0  0  0  0  0  0  0
  -21.7741  -42.9623    1.3710 F   0  0  0  0  0  0  0  0  0  0  0  0
  -20.6321  -43.5262    0.8279 C   0  0  0  0  0  0  0  0  0  0  0  0
  -22.3296  -43.6830   -2.2228 N   0  0  0  0  0  0  0  0  0  0  0  0
  -22.4771  -41.0820   -5.6246 O   0  0  0  0  0  0  0  0  0  0  0  0
  -20.0538  -40.5366   -6.9818 C   0  0  0  0  0  0  0  0  0  0  0  0
  -19.5124  -37.4471   -9.6120 F   0  0  0  0  0  0  0  0  0  0  0  0
  -16.3908  -38.8703   -7.0760 N   0  0  0  0  0  0  0  0  0  0  0  0
  -16.4609  -41.5592   -7.8420 S   0  0  0  0  0  0  0  0  0  0  0  0
  -16.1014  -38.7463  -10.6543 C   0  0  0  0  0  0  0  0  0  0  0  0
  -17.0837  -38.5443  -11.5821 C   0  0  0  0  0  0  0  0  0  0  0  0
  -16.7796  -37.9286  -12.7726 C   0  0  0  0  0  0  0  0  0  0  0  0
  -15.5061  -37.4980  -13.0787 C   0  0  0  0  0  0  0  0  0  0  0  0
  -14.5100  -37.6984  -12.1479 C   0  0  0  0  0  0  0  0  0  0  0  0
  -14.8146  -38.3098  -10.9669 C   0  0  0  0  0  0  0  0  0  0  0  0
  -15.0710  -40.2851   -4.9890 H   0  0  0  0  0  0  0  0  0  0  0  0
  1  2  2  0
 24  1  1  0
  2  3  1  0
  4  3  2  0
  3 25  1  0
  5  4  1  0
  4  6  1  0
 24  5  2  0
  6  7  1  0
  6 19  1  6
  6 26  1  0
  7 11  1  0
  7 28  1  6
 13  8  2  0
 14  9  1  0
  9 24  1  0
 17 10  1  0
 10 21  1  0
 11 27  1  0
 12 15  2  0
 16 12  1  0
 26 13  1  0
 13 27  1  0
 15 14  1  0
 14 23  2  0
 15 18  1  0
 16 17  2  0
 17 22  1  0
 18 22  2  0
 21 20  1  0
 28 29  2  0
 28 33  1  0
 29 30  1  0
 30 31  2  0
 31 32  1  0
 32 33  2  0
  8 34  1  0
M  END
$$$$
