
     RDKit          3D

 34 37  0  0  0  0  0  0  0  0999 V2000
  -21.1703  -39.2590   -7.6334 C   0  0  0  0  0  0  0  0  0  0  0  0
  -20.7919  -38.7691   -8.8641 C   0  0  0  0  0  0  0  0  0  0  0  0
  -19.4615  -38.4310   -9.1459 C   0  0  0  0  0  0  0  0  0  0  0  0
  -18.4875  -38.5809   -8.1948 C   0  0  0  0  0  0  0  0  0  0  0  0
  -18.8993  -39.0780   -6.9585 C   0  0  0  0  0  0  0  0  0  0  0  0
  -17.0604  -38.2666   -8.4426 C   0  0  1  0  0  0  0  0  0  0  0  0
  -16.3842  -39.1863   -9.4409 C   0  0  1  0  0  0  0  0  0  0  0  0
  -15.0086  -40.1203   -6.0210 N   0  0  0  0  0  0  0  0  0  0  0  0
  -20.5876  -39.9155   -5.4038 N   0  0  0  0  0  0  0  0  0  0  0  0
  -22.0756  -43.4531   -0.2088 O   0  0  0  0  0  0  0  0  0  0  0  0
  -17.0006  -40.5628   -9.4859 C   0  0  0  0  0  0  0  0  0  0  0  0
  -22.1804  -42.8265   -3.7788 N   0  0  0  0  0  0  0  0  0  0  0  0
  -15.9135  -39.8902   -6.8980 C   0  0  0  0  0  0  0  0  0  0  0  0
  -21.3436  -41.0938   -5.2167 C   0  0  0  0  0  0  0  0  0  0  0  0
  -21.5127  -41.6749   -3.8995 C   0  0  0  0  0  0  0  0  0  0  0  0
  -22.3702  -43.4160   -2.5799 C   0  0  0  0  0  0  0  0  0  0  0  0
  -21.8642  -42.8186   -1.4465 C   0  0  0  0  0  0  0  0  0  0  0  0
  -21.0201  -41.1045   -2.7467 C   0  0  0  0  0  0  0  0  0  0  0  0
  -16.7772  -36.8437   -8.7594 C   0  0  0  0  0  0  0  0  0  0  0  0
  -20.4173  -43.1968    1.3110 F   0  0  0  0  0  0  0  0  0  0  0  0
  -20.9854  -44.1045    0.4333 C   0  0  0  0  0  0  0  0  0  0  0  0
  -21.1949  -41.6704   -1.5399 N   0  0  0  0  0  0  0  0  0  0  0  0
  -21.8552  -41.6013   -6.2546 O   0  0  0  0  0  0  0  0  0  0  0  0
  -20.1933  -39.4112   -6.6701 C   0  0  0  0  0  0  0  0  0  0  0  0
  -19.2432  -37.9385  -10.3693 F   0  0  0  0  0  0  0  0  0  0  0  0
  -16.3514  -38.5663   -7.1595 N   0  0  0  0  0  0  0  0  0  0  0  0
  -16.6473  -41.2680   -7.8194 S   0  0  0  0  0  0  0  0  0  0  0  0
  -16.0571  -38.6077  -10.7392 C   0  0  0  0  0  0  0  0  0  0  0  0
  -16.9959  -38.4810  -11.7237 C   0  0  0  0  0  0  0  0  0  0  0  0
  -16.6430  -37.9354  -12.9348 C   0  0  0  0  0  0  0  0  0  0  0  0
  -15.3625  -37.5024  -13.2064 C   0  0  0  0  0  0  0  0  0  0  0  0
  -14.4102  -37.6269  -12.2182 C   0  0  0  0  0  0  0  0  0  0  0  0
  -14.7631  -38.1689  -11.0169 C   0  0  0  0  0  0  0  0  0  0  0  0
  -15.0911  -40.8373   -5.2974 H   0  0  0  0  0  0  0  0  0  0  0  0
  1  2  2  0
 24  1  1  0
  2  3  1  0
  4  3  2  0
  3 25  1  0
  5  4  1  0
  4  6  1  0
 24  5  2  0
  6  7  1  0
  6 19  1  6
  6 26  1  0
  7 11  1  0
  7 28  1  6
 13  8  2  0
 14  9  1  0
  9 24  1  0
 17 10  1  0
 10 21  1  0
 11 27  1  0
 12 15  2  0
 16 12  1  0
 26 13  1  0
 13 27  1  0
 15 14  1  0
 14 23  2  0
 15 18  1  0
 16 17  2  0
 17 22  1  0
 18 22  2  0
 21 20  1  0
 28 29  2  0
 28 33  1  0
 29 30  1  0
 30 31  2  0
 31 32  1  0
 32 33  2  0
  8 34  1  0
M  END
$$$$
