
     RDKit          3D

 34 37  0  0  0  0  0  0  0  0999 V2000
  -16.4257  -37.1103  -12.1057 C   0  0  0  0  0  0  0  0  0  0  0  0
  -17.7694  -37.3994  -12.0109 C   0  0  0  0  0  0  0  0  0  0  0  0
  -18.2611  -38.3216  -11.0773 C   0  0  0  0  0  0  0  0  0  0  0  0
  -17.4099  -38.9687  -10.2215 C   0  0  0  0  0  0  0  0  0  0  0  0
  -16.0557  -38.6571  -10.3404 C   0  0  0  0  0  0  0  0  0  0  0  0
  -17.8736  -39.9328   -9.1957 C   0  0  1  0  0  0  0  0  0  0  0  0
  -18.3917  -39.2887   -7.9243 C   0  0  1  0  0  0  0  0  0  0  0  0
  -15.0268  -40.8297   -7.0505 N   0  0  0  0  0  0  0  0  0  0  0  0
  -14.1795  -37.4599  -11.3481 N   0  0  0  0  0  0  0  0  0  0  0  0
   -7.7818  -37.5410  -11.5373 O   0  0  0  0  0  0  0  0  0  0  0  0
  -17.7642  -37.9449   -7.6462 C   0  0  0  0  0  0  0  0  0  0  0  0
  -11.3526  -37.6262  -10.9122 N   0  0  0  0  0  0  0  0  0  0  0  0
  -15.8464  -40.1010   -7.7126 C   0  0  0  0  0  0  0  0  0  0  0  0
  -13.2929  -38.0875  -12.2509 C   0  0  0  0  0  0  0  0  0  0  0  0
  -11.8568  -37.9552  -12.1056 C   0  0  0  0  0  0  0  0  0  0  0  0
  -10.0249  -37.4883  -10.7149 C   0  0  0  0  0  0  0  0  0  0  0  0
   -9.1613  -37.6909  -11.7688 C   0  0  0  0  0  0  0  0  0  0  0  0
  -10.9659  -38.1505  -13.1376 C   0  0  0  0  0  0  0  0  0  0  0  0
  -18.8200  -40.9659   -9.6879 C   0  0  0  0  0  0  0  0  0  0  0  0
   -7.7050  -36.6274  -13.6072 F   0  0  0  0  0  0  0  0  0  0  0  0
   -7.0163  -36.7174  -12.4095 C   0  0  0  0  0  0  0  0  0  0  0  0
   -9.6387  -38.0196  -12.9685 N   0  0  0  0  0  0  0  0  0  0  0  0
  -13.8234  -38.7613  -13.1789 O   0  0  0  0  0  0  0  0  0  0  0  0
  -15.5625  -37.7602  -11.2466 C   0  0  0  0  0  0  0  0  0  0  0  0
  -19.5813  -38.5277  -11.1177 F   0  0  0  0  0  0  0  0  0  0  0  0
  -16.6478  -40.6605   -8.7411 N   0  0  0  0  0  0  0  0  0  0  0  0
  -15.9888  -38.3337   -7.3362 S   0  0  0  0  0  0  0  0  0  0  0  0
  -19.8307  -39.3627   -7.6984 C   0  0  0  0  0  0  0  0  0  0  0  0
  -20.3825  -40.3298   -6.9068 C   0  0  0  0  0  0  0  0  0  0  0  0
  -21.7444  -40.3664   -6.7257 C   0  0  0  0  0  0  0  0  0  0  0  0
  -22.5942  -39.4557   -7.3168 C   0  0  0  0  0  0  0  0  0  0  0  0
  -22.0449  -38.4773   -8.1167 C   0  0  0  0  0  0  0  0  0  0  0  0
  -20.6927  -38.4432   -8.2948 C   0  0  0  0  0  0  0  0  0  0  0  0
  -14.1733  -41.2265   -7.4487 H   0  0  0  0  0  0  0  0  0  0  0  0
  1  2  2  0
 24  1  1  0
  2  3  1  0
  4  3  2  0
  3 25  1  0
  5  4  1  0
  4  6  1  0
 24  5  2  0
  6  7  1  0
  6 19  1  6
  6 26  1  0
  7 11  1  0
  7 28  1  6
 13  8  2  0
 14  9  1  0
  9 24  1  0
 17 10  1  0
 10 21  1  0
 11 27  1  0
 12 15  2  0
 16 12  1  0
 26 13  1  0
 13 27  1  0
 15 14  1  0
 14 23  2  0
 15 18  1  0
 16 17  2  0
 17 22  1  0
 18 22  2  0
 21 20  1  0
 28 29  2  0
 28 33  1  0
 29 30  1  0
 30 31  2  0
 31 32  1  0
 32 33  2  0
  8 34  1  0
M  END
$$$$
