
     RDKit          3D

 34 37  0  0  0  0  0  0  0  0999 V2000
  -21.0151  -39.6999   -7.2507 C   0  0  0  0  0  0  0  0  0  0  0  0
  -20.8104  -39.1289   -8.4876 C   0  0  0  0  0  0  0  0  0  0  0  0
  -19.5411  -38.7041   -8.9027 C   0  0  0  0  0  0  0  0  0  0  0  0
  -18.4547  -38.8471   -8.0812 C   0  0  0  0  0  0  0  0  0  0  0  0
  -18.6916  -39.4273   -6.8353 C   0  0  0  0  0  0  0  0  0  0  0  0
  -17.0844  -38.4423   -8.4752 C   0  0  1  0  0  0  0  0  0  0  0  0
  -16.4481  -39.3351   -9.5228 C   0  0  1  0  0  0  0  0  0  0  0  0
  -14.6794  -40.1009   -6.2447 N   0  0  0  0  0  0  0  0  0  0  0  0
  -20.1397  -40.4336   -5.1443 N   0  0  0  0  0  0  0  0  0  0  0  0
  -21.4739  -43.7270    0.1776 O   0  0  0  0  0  0  0  0  0  0  0  0
  -16.9688  -40.7508   -9.4860 C   0  0  0  0  0  0  0  0  0  0  0  0
  -20.4429  -41.6212   -2.5885 N   0  0  0  0  0  0  0  0  0  0  0  0
  -15.6804  -39.9514   -7.0300 C   0  0  0  0  0  0  0  0  0  0  0  0
  -21.2466  -41.2493   -4.8214 C   0  0  0  0  0  0  0  0  0  0  0  0
  -21.3389  -41.9137   -3.5364 C   0  0  0  0  0  0  0  0  0  0  0  0
  -20.4771  -42.2065   -1.3732 C   0  0  0  0  0  0  0  0  0  0  0  0
  -21.4600  -43.1312   -1.0967 C   0  0  0  0  0  0  0  0  0  0  0  0
  -22.3080  -42.8422   -3.2271 C   0  0  0  0  0  0  0  0  0  0  0  0
  -16.9334  -37.0105   -8.8393 C   0  0  0  0  0  0  0  0  0  0  0  0
  -21.1258  -45.9627    0.2563 F   0  0  0  0  0  0  0  0  0  0  0  0
  -22.1071  -44.9901    0.3472 C   0  0  0  0  0  0  0  0  0  0  0  0
  -22.3650  -43.4401   -2.0245 N   0  0  0  0  0  0  0  0  0  0  0  0
  -22.1375  -41.3612   -5.7104 O   0  0  0  0  0  0  0  0  0  0  0  0
  -19.9241  -39.8456   -6.4175 C   0  0  0  0  0  0  0  0  0  0  0  0
  -19.4945  -38.1398  -10.1137 F   0  0  0  0  0  0  0  0  0  0  0  0
  -16.2329  -38.6660   -7.2653 N   0  0  0  0  0  0  0  0  0  0  0  0
  -16.4043  -41.3949   -7.8533 S   0  0  0  0  0  0  0  0  0  0  0  0
  -16.2920  -38.7635  -10.8556 C   0  0  0  0  0  0  0  0  0  0  0  0
  -17.2800  -38.8561  -11.7947 C   0  0  0  0  0  0  0  0  0  0  0  0
  -17.0887  -38.3082  -13.0405 C   0  0  0  0  0  0  0  0  0  0  0  0
  -15.9248  -37.6580  -13.3921 C   0  0  0  0  0  0  0  0  0  0  0  0
  -14.9238  -37.5606  -12.4502 C   0  0  0  0  0  0  0  0  0  0  0  0
  -15.1162  -38.1054  -11.2142 C   0  0  0  0  0  0  0  0  0  0  0  0
  -14.7571  -40.1175   -5.2258 H   0  0  0  0  0  0  0  0  0  0  0  0
  1  2  2  0
 24  1  1  0
  2  3  1  0
  4  3  2  0
  3 25  1  0
  5  4  1  0
  4  6  1  0
 24  5  2  0
  6  7  1  0
  6 19  1  6
  6 26  1  0
  7 11  1  0
  7 28  1  6
 13  8  2  0
 14  9  1  0
  9 24  1  0
 17 10  1  0
 10 21  1  0
 11 27  1  0
 12 15  2  0
 16 12  1  0
 26 13  1  0
 13 27  1  0
 15 14  1  0
 14 23  2  0
 15 18  1  0
 16 17  2  0
 17 22  1  0
 18 22  2  0
 21 20  1  0
 28 29  2  0
 28 33  1  0
 29 30  1  0
 30 31  2  0
 31 32  1  0
 32 33  2  0
  8 34  1  0
M  END
$$$$
