
     RDKit          3D

 34 37  0  0  0  0  0  0  0  0999 V2000
  -20.9945  -40.4485   -7.4549 C   0  0  0  0  0  0  0  0  0  0  0  0
  -20.8564  -39.5335   -8.4755 C   0  0  0  0  0  0  0  0  0  0  0  0
  -19.6202  -38.9463   -8.7771 C   0  0  0  0  0  0  0  0  0  0  0  0
  -18.5005  -39.2701   -8.0580 C   0  0  0  0  0  0  0  0  0  0  0  0
  -18.6701  -40.1981   -7.0308 C   0  0  0  0  0  0  0  0  0  0  0  0
  -17.1619  -38.7034   -8.3476 C   0  0  1  0  0  0  0  0  0  0  0  0
  -16.3994  -39.4320   -9.4372 C   0  0  1  0  0  0  0  0  0  0  0  0
  -14.6970  -40.3264   -6.1567 N   0  0  0  0  0  0  0  0  0  0  0  0
  -20.0167  -41.7203   -5.6750 N   0  0  0  0  0  0  0  0  0  0  0  0
  -21.0404  -44.2593    0.1105 O   0  0  0  0  0  0  0  0  0  0  0  0
  -16.7796  -40.8878   -9.5504 C   0  0  0  0  0  0  0  0  0  0  0  0
  -20.0754  -42.5706   -2.9499 N   0  0  0  0  0  0  0  0  0  0  0  0
  -15.6755  -40.2001   -6.9737 C   0  0  0  0  0  0  0  0  0  0  0  0
  -21.2185  -41.9416   -4.9667 C   0  0  0  0  0  0  0  0  0  0  0  0
  -21.2125  -42.5526   -3.6522 C   0  0  0  0  0  0  0  0  0  0  0  0
  -20.0073  -43.1246   -1.7214 C   0  0  0  0  0  0  0  0  0  0  0  0
  -21.1376  -43.6882   -1.1716 C   0  0  0  0  0  0  0  0  0  0  0  0
  -22.3236  -43.1246   -3.0734 C   0  0  0  0  0  0  0  0  0  0  0  0
  -17.1379  -37.2363   -8.5767 C   0  0  0  0  0  0  0  0  0  0  0  0
  -21.9942  -43.1185    1.8176 F   0  0  0  0  0  0  0  0  0  0  0  0
  -22.1651  -44.2083    0.9808 C   0  0  0  0  0  0  0  0  0  0  0  0
  -22.2835  -43.6832   -1.8513 N   0  0  0  0  0  0  0  0  0  0  0  0
  -22.2828  -41.5787   -5.5431 O   0  0  0  0  0  0  0  0  0  0  0  0
  -19.8697  -40.7780   -6.7256 C   0  0  0  0  0  0  0  0  0  0  0  0
  -19.6388  -38.0528   -9.7711 F   0  0  0  0  0  0  0  0  0  0  0  0
  -16.3418  -38.9563   -7.1219 N   0  0  0  0  0  0  0  0  0  0  0  0
  -16.2204  -41.6234   -7.9549 S   0  0  0  0  0  0  0  0  0  0  0  0
  -16.2469  -38.7278  -10.7055 C   0  0  0  0  0  0  0  0  0  0  0  0
  -15.0444  -38.2117  -11.0979 C   0  0  0  0  0  0  0  0  0  0  0  0
  -14.9467  -37.5501  -12.2986 C   0  0  0  0  0  0  0  0  0  0  0  0
  -16.0257  -37.3804  -13.1399 C   0  0  0  0  0  0  0  0  0  0  0  0
  -17.2420  -37.8982  -12.7508 C   0  0  0  0  0  0  0  0  0  0  0  0
  -17.3363  -38.5546  -11.5584 C   0  0  0  0  0  0  0  0  0  0  0  0
  -14.7439  -40.0577   -5.1717 H   0  0  0  0  0  0  0  0  0  0  0  0
  1  2  2  0
 24  1  1  0
  2  3  1  0
  4  3  2  0
  3 25  1  0
  5  4  1  0
  4  6  1  0
 24  5  2  0
  6  7  1  0
  6 19  1  6
  6 26  1  0
  7 11  1  0
  7 28  1  6
 13  8  2  0
 14  9  1  0
  9 24  1  0
 17 10  1  0
 10 21  1  0
 11 27  1  0
 12 15  2  0
 16 12  1  0
 26 13  1  0
 13 27  1  0
 15 14  1  0
 14 23  2  0
 15 18  1  0
 16 17  2  0
 17 22  1  0
 18 22  2  0
 21 20  1  0
 28 29  2  0
 28 33  1  0
 29 30  1  0
 30 31  2  0
 31 32  1  0
 32 33  2  0
  8 34  1  0
M  END
$$$$
