
     RDKit          3D

 34 37  0  0  0  0  0  0  0  0999 V2000
  -21.0984  -39.6021   -7.3114 C   0  0  0  0  0  0  0  0  0  0  0  0
  -20.8122  -39.1320   -8.5743 C   0  0  0  0  0  0  0  0  0  0  0  0
  -19.5187  -38.7333   -8.9371 C   0  0  0  0  0  0  0  0  0  0  0  0
  -18.4895  -38.8015   -8.0361 C   0  0  0  0  0  0  0  0  0  0  0  0
  -18.8083  -39.2803   -6.7657 C   0  0  0  0  0  0  0  0  0  0  0  0
  -17.0966  -38.4203   -8.3696 C   0  0  1  0  0  0  0  0  0  0  0  0
  -16.4439  -39.3002   -9.4181 C   0  0  1  0  0  0  0  0  0  0  0  0
  -14.8144  -40.1969   -6.1013 N   0  0  0  0  0  0  0  0  0  0  0  0
  -20.3648  -40.1563   -5.0986 N   0  0  0  0  0  0  0  0  0  0  0  0
  -21.3525  -43.5928    0.2081 O   0  0  0  0  0  0  0  0  0  0  0  0
  -16.9991  -40.7031   -9.4391 C   0  0  0  0  0  0  0  0  0  0  0  0
  -20.4897  -41.4424   -2.5812 N   0  0  0  0  0  0  0  0  0  0  0  0
  -15.7823  -40.0017   -6.9174 C   0  0  0  0  0  0  0  0  0  0  0  0
  -21.3027  -41.1766   -4.8259 C   0  0  0  0  0  0  0  0  0  0  0  0
  -21.3467  -41.8281   -3.5317 C   0  0  0  0  0  0  0  0  0  0  0  0
  -20.4824  -42.0109   -1.3575 C   0  0  0  0  0  0  0  0  0  0  0  0
  -21.3805  -43.0165   -1.0750 C   0  0  0  0  0  0  0  0  0  0  0  0
  -22.2310  -42.8358   -3.2163 C   0  0  0  0  0  0  0  0  0  0  0  0
  -16.8985  -36.9835   -8.6884 C   0  0  0  0  0  0  0  0  0  0  0  0
  -19.7375  -45.1788    0.2525 F   0  0  0  0  0  0  0  0  0  0  0  0
  -21.1063  -44.9884    0.3376 C   0  0  0  0  0  0  0  0  0  0  0  0
  -22.2451  -43.4191   -2.0053 N   0  0  0  0  0  0  0  0  0  0  0  0
  -22.0887  -41.4804   -5.7674 O   0  0  0  0  0  0  0  0  0  0  0  0
  -20.0654  -39.6721   -6.3983 C   0  0  0  0  0  0  0  0  0  0  0  0
  -19.3920  -38.2687  -10.1842 F   0  0  0  0  0  0  0  0  0  0  0  0
  -16.2952  -38.6972   -7.1368 N   0  0  0  0  0  0  0  0  0  0  0  0
  -16.5098  -41.4043   -7.8056 S   0  0  0  0  0  0  0  0  0  0  0  0
  -16.2260  -38.6971  -10.7282 C   0  0  0  0  0  0  0  0  0  0  0  0
  -15.1308  -37.9222  -10.9865 C   0  0  0  0  0  0  0  0  0  0  0  0
  -14.9677  -37.3683  -12.2336 C   0  0  0  0  0  0  0  0  0  0  0  0
  -15.8745  -37.5623  -13.2539 C   0  0  0  0  0  0  0  0  0  0  0  0
  -16.9816  -38.3427  -13.0008 C   0  0  0  0  0  0  0  0  0  0  0  0
  -17.1413  -38.8914  -11.7619 C   0  0  0  0  0  0  0  0  0  0  0  0
  -14.9443  -40.4288   -5.1145 H   0  0  0  0  0  0  0  0  0  0  0  0
  1  2  2  0
 24  1  1  0
  2  3  1  0
  4  3  2  0
  3 25  1  0
  5  4  1  0
  4  6  1  0
 24  5  2  0
  6  7  1  0
  6 19  1  6
  6 26  1  0
  7 11  1  0
  7 28  1  6
 13  8  2  0
 14  9  1  0
  9 24  1  0
 17 10  1  0
 10 21  1  0
 11 27  1  0
 12 15  2  0
 16 12  1  0
 26 13  1  0
 13 27  1  0
 15 14  1  0
 14 23  2  0
 15 18  1  0
 16 17  2  0
 17 22  1  0
 18 22  2  0
 21 20  1  0
 28 29  2  0
 28 33  1  0
 29 30  1  0
 30 31  2  0
 31 32  1  0
 32 33  2  0
  8 34  1  0
M  END
$$$$
