
     RDKit          3D

 34 37  0  0  0  0  0  0  0  0999 V2000
  -21.0608  -39.6812   -7.5618 C   0  0  0  0  0  0  0  0  0  0  0  0
  -20.7838  -39.1132   -8.7859 C   0  0  0  0  0  0  0  0  0  0  0  0
  -19.4949  -38.6777   -9.1220 C   0  0  0  0  0  0  0  0  0  0  0  0
  -18.4613  -38.8069   -8.2329 C   0  0  0  0  0  0  0  0  0  0  0  0
  -18.7709  -39.3844   -7.0018 C   0  0  0  0  0  0  0  0  0  0  0  0
  -17.0727  -38.3903   -8.5415 C   0  0  1  0  0  0  0  0  0  0  0  0
  -16.3995  -39.2167   -9.6201 C   0  0  1  0  0  0  0  0  0  0  0  0
  -14.7757  -40.2202   -6.3313 N   0  0  0  0  0  0  0  0  0  0  0  0
  -20.3133  -40.3980   -5.4010 N   0  0  0  0  0  0  0  0  0  0  0  0
  -21.9799  -43.8830   -0.2281 O   0  0  0  0  0  0  0  0  0  0  0  0
  -16.9317  -40.6263   -9.7012 C   0  0  0  0  0  0  0  0  0  0  0  0
  -22.4604  -42.7900   -3.6520 N   0  0  0  0  0  0  0  0  0  0  0  0
  -15.7417  -40.0077   -7.1453 C   0  0  0  0  0  0  0  0  0  0  0  0
  -21.1612  -41.5126   -5.2173 C   0  0  0  0  0  0  0  0  0  0  0  0
  -21.3367  -42.1137   -3.9100 C   0  0  0  0  0  0  0  0  0  0  0  0
  -22.6812  -43.3714   -2.4545 C   0  0  0  0  0  0  0  0  0  0  0  0
  -21.7257  -43.2681   -1.4677 C   0  0  0  0  0  0  0  0  0  0  0  0
  -20.4024  -42.0296   -2.9016 C   0  0  0  0  0  0  0  0  0  0  0  0
  -16.8961  -36.9388   -8.8009 C   0  0  0  0  0  0  0  0  0  0  0  0
  -20.1321  -44.2473    1.0283 F   0  0  0  0  0  0  0  0  0  0  0  0
  -21.0847  -44.8813    0.2488 C   0  0  0  0  0  0  0  0  0  0  0  0
  -20.5969  -42.5993   -1.6997 N   0  0  0  0  0  0  0  0  0  0  0  0
  -21.7479  -41.9455   -6.2492 O   0  0  0  0  0  0  0  0  0  0  0  0
  -20.0233  -39.8131   -6.6607 C   0  0  0  0  0  0  0  0  0  0  0  0
  -19.3773  -38.1177  -10.3301 F   0  0  0  0  0  0  0  0  0  0  0  0
  -16.2744  -38.7038   -7.3154 N   0  0  0  0  0  0  0  0  0  0  0  0
  -16.4409  -41.3849   -8.0940 S   0  0  0  0  0  0  0  0  0  0  0  0
  -16.1835  -38.5579  -10.9033 C   0  0  0  0  0  0  0  0  0  0  0  0
  -17.1223  -38.5965  -11.8952 C   0  0  0  0  0  0  0  0  0  0  0  0
  -16.8751  -37.9669  -13.0915 C   0  0  0  0  0  0  0  0  0  0  0  0
  -15.7025  -37.2859  -13.3409 C   0  0  0  0  0  0  0  0  0  0  0  0
  -14.7508  -37.2426  -12.3453 C   0  0  0  0  0  0  0  0  0  0  0  0
  -14.9986  -37.8686  -11.1586 C   0  0  0  0  0  0  0  0  0  0  0  0
  -14.8466  -40.8331   -5.5165 H   0  0  0  0  0  0  0  0  0  0  0  0
  1  2  2  0
 24  1  1  0
  2  3  1  0
  4  3  2  0
  3 25  1  0
  5  4  1  0
  4  6  1  0
 24  5  2  0
  6  7  1  0
  6 19  1  6
  6 26  1  0
  7 11  1  0
  7 28  1  6
 13  8  2  0
 14  9  1  0
  9 24  1  0
 17 10  1  0
 10 21  1  0
 11 27  1  0
 12 15  2  0
 16 12  1  0
 26 13  1  0
 13 27  1  0
 15 14  1  0
 14 23  2  0
 15 18  1  0
 16 17  2  0
 17 22  1  0
 18 22  2  0
 21 20  1  0
 28 29  2  0
 28 33  1  0
 29 30  1  0
 30 31  2  0
 31 32  1  0
 32 33  2  0
  8 34  1  0
M  END
$$$$
