
     RDKit          3D

 27 29  0  0  0  0  0  0  0  0999 V2000
    1.0026   11.1533   25.6180 C   0  0  0  0  0  0  0  0  0  0  0  0
   -0.0214   11.2605   24.7084 C   0  0  0  0  0  0  0  0  0  0  0  0
   -1.3486   11.1149   25.0802 C   0  0  0  0  0  0  0  0  0  0  0  0
    1.9300   11.5648   23.6707 C   0  0  0  0  0  0  0  0  0  0  0  0
   -1.5899   10.8631   26.3763 N   0  0  0  0  0  0  0  0  0  0  0  0
    0.7218   10.9009   26.9051 N   0  0  0  0  0  0  0  0  0  0  0  0
    4.6466   14.8691   26.1666 C   0  0  0  0  0  0  0  0  0  0  0  0
    4.1150   13.6858   25.4019 C   0  0  0  0  0  0  0  0  0  0  0  0
    3.7649   12.5838   26.3781 C   0  0  0  0  0  0  0  0  0  0  0  0
    3.4955   11.2928   25.6033 C   0  0  0  0  0  0  0  0  0  0  0  0
    2.1917   11.3419   24.9674 N   0  0  0  0  0  0  0  0  0  0  0  0
   -0.5595   10.7591   27.2705 C   0  0  0  0  0  0  0  0  0  0  0  0
   -2.4201   11.2209   24.1622 N   0  0  0  0  0  0  0  0  0  0  0  0
    0.5718   11.5111   23.5312 N   0  0  0  0  0  0  0  0  0  0  0  0
    2.9110   11.8327   22.5716 C   0  0  0  0  0  0  0  0  0  0  0  0
    4.1407   11.0258   22.6831 C   0  0  0  0  0  0  0  0  0  0  0  0
    5.2711   11.6407   23.2282 C   0  0  0  0  0  0  0  0  0  0  0  0
    4.1825    9.7185   22.2626 C   0  0  0  0  0  0  0  0  0  0  0  0
    5.3466    8.9881   22.3725 C   0  0  0  0  0  0  0  0  0  0  0  0
    5.4038    7.6634   21.9511 O   0  0  0  0  0  0  0  0  0  0  0  0
    4.3716    7.1515   21.1679 C   0  0  0  0  0  0  0  0  0  0  0  0
    6.4713    9.6093   22.9181 C   0  0  0  0  0  0  0  0  0  0  0  0
    7.6269    8.8384   23.0120 O   0  0  0  0  0  0  0  0  0  0  0  0
    8.3138    8.7290   24.2441 C   0  0  0  0  0  0  0  0  0  0  0  0
    6.4358   10.9184   23.3409 C   0  0  0  0  0  0  0  0  0  0  0  0
    7.5660   11.5124   23.8791 O   0  0  0  0  0  0  0  0  0  0  0  0
    7.5332   12.8538   24.3468 C   0  0  0  0  0  0  0  0  0  0  0  0
  1  2  1  0
  1  6  2  0
 11  1  1  0
  2  3  2  0
 14  2  1  0
  3  5  1  0
  3 13  1  0
 11  4  1  0
  4 14  2  0
  4 15  1  0
 12  5  2  0
  6 12  1  0
  8  7  1  0
  9  8  1  0
 10  9  1  0
 10 11  1  0
 15 16  1  0
 16 17  2  0
 16 18  1  0
 17 25  1  0
 18 19  2  0
 19 20  1  0
 19 22  1  0
 20 21  1  0
 22 23  1  0
 22 25  2  0
 23 24  1  0
 25 26  1  0
 26 27  1  0
M  END
$$$$
