
     RDKit          3D

 27 29  0  0  0  0  0  0  0  0999 V2000
    0.7839    9.9245   25.6083 C   0  0  0  0  0  0  0  0  0  0  0  0
    0.0292   10.7262   24.7866 C   0  0  0  0  0  0  0  0  0  0  0  0
   -1.3073   10.9868   25.0449 C   0  0  0  0  0  0  0  0  0  0  0  0
    2.1078   10.5897   23.9877 C   0  0  0  0  0  0  0  0  0  0  0  0
   -1.8342   10.4176   26.1402 N   0  0  0  0  0  0  0  0  0  0  0  0
    0.2219    9.3731   26.6943 N   0  0  0  0  0  0  0  0  0  0  0  0
    2.7682    5.8943   25.8953 C   0  0  0  0  0  0  0  0  0  0  0  0
    2.4810    6.8737   24.7881 C   0  0  0  0  0  0  0  0  0  0  0  0
    3.5550    7.9397   24.7807 C   0  0  0  0  0  0  0  0  0  0  0  0
    3.1333    9.0845   25.7033 C   0  0  0  0  0  0  0  0  0  0  0  0
    2.0546    9.8503   25.1059 N   0  0  0  0  0  0  0  0  0  0  0  0
   -1.0699    9.6215   26.9492 C   0  0  0  0  0  0  0  0  0  0  0  0
   -2.1048   11.8087   24.2139 N   0  0  0  0  0  0  0  0  0  0  0  0
    0.8603   11.1172   23.8083 N   0  0  0  0  0  0  0  0  0  0  0  0
    3.2893   10.8185   23.0968 C   0  0  0  0  0  0  0  0  0  0  0  0
    4.3346   11.6500   23.7228 C   0  0  0  0  0  0  0  0  0  0  0  0
    5.6599   11.2231   23.6018 C   0  0  0  0  0  0  0  0  0  0  0  0
    4.0237   12.8002   24.4067 C   0  0  0  0  0  0  0  0  0  0  0  0
    5.0195   13.5562   24.9877 C   0  0  0  0  0  0  0  0  0  0  0  0
    4.7197   14.7232   25.6832 O   0  0  0  0  0  0  0  0  0  0  0  0
    3.3920   15.1306   25.7921 C   0  0  0  0  0  0  0  0  0  0  0  0
    6.3407   13.1232   24.8624 C   0  0  0  0  0  0  0  0  0  0  0  0
    7.3168   13.9138   25.4629 O   0  0  0  0  0  0  0  0  0  0  0  0
    7.2833   15.3209   25.3194 C   0  0  0  0  0  0  0  0  0  0  0  0
    6.6585   11.9719   24.1788 C   0  0  0  0  0  0  0  0  0  0  0  0
    7.9778   11.5634   24.0686 O   0  0  0  0  0  0  0  0  0  0  0  0
    8.3112   10.3345   23.4376 C   0  0  0  0  0  0  0  0  0  0  0  0
  1  2  1  0
  1  6  2  0
 11  1  1  0
  2  3  2  0
 14  2  1  0
  3  5  1  0
  3 13  1  0
 11  4  1  0
  4 14  2  0
  4 15  1  0
 12  5  2  0
  6 12  1  0
  8  7  1  0
  9  8  1  0
 10  9  1  0
 10 11  1  0
 15 16  1  0
 16 17  2  0
 16 18  1  0
 17 25  1  0
 18 19  2  0
 19 20  1  0
 19 22  1  0
 20 21  1  0
 22 23  1  0
 22 25  2  0
 23 24  1  0
 25 26  1  0
 26 27  1  0
M  END
$$$$
