
     RDKit          3D

 27 29  0  0  0  0  0  0  0  0999 V2000
    0.3960    9.8564   25.1045 C   0  0  0  0  0  0  0  0  0  0  0  0
    0.1000   11.1976   25.1367 C   0  0  0  0  0  0  0  0  0  0  0  0
   -1.1376   11.6834   24.7455 C   0  0  0  0  0  0  0  0  0  0  0  0
    2.1902   10.8799   25.8493 C   0  0  0  0  0  0  0  0  0  0  0  0
   -2.0392   10.7796   24.3314 N   0  0  0  0  0  0  0  0  0  0  0  0
   -0.5314    8.9832   24.6844 N   0  0  0  0  0  0  0  0  0  0  0  0
    3.2662    7.8566   28.1411 C   0  0  0  0  0  0  0  0  0  0  0  0
    1.7866    7.6588   27.9425 C   0  0  0  0  0  0  0  0  0  0  0  0
    1.5135    7.4161   26.4741 C   0  0  0  0  0  0  0  0  0  0  0  0
    2.3458    8.3915   25.6401 C   0  0  0  0  0  0  0  0  0  0  0  0
    1.6798    9.6775   25.5436 N   0  0  0  0  0  0  0  0  0  0  0  0
   -1.7298    9.4470   24.3049 C   0  0  0  0  0  0  0  0  0  0  0  0
   -1.4659   13.0596   24.7698 N   0  0  0  0  0  0  0  0  0  0  0  0
    1.2101   11.7970   25.5940 N   0  0  0  0  0  0  0  0  0  0  0  0
    3.5573   11.1867   26.3775 C   0  0  0  0  0  0  0  0  0  0  0  0
    4.4084   11.8974   25.4047 C   0  0  0  0  0  0  0  0  0  0  0  0
    5.1149   11.1261   24.4778 C   0  0  0  0  0  0  0  0  0  0  0  0
    4.5125   13.2674   25.4076 C   0  0  0  0  0  0  0  0  0  0  0  0
    5.3198   13.9067   24.4911 C   0  0  0  0  0  0  0  0  0  0  0  0
    5.4350   15.2931   24.4819 O   0  0  0  0  0  0  0  0  0  0  0  0
    4.7288   16.0426   25.4201 C   0  0  0  0  0  0  0  0  0  0  0  0
    6.0222   13.1293   23.5685 C   0  0  0  0  0  0  0  0  0  0  0  0
    6.8264   13.8122   22.6600 O   0  0  0  0  0  0  0  0  0  0  0  0
    6.2447   14.6643   21.6919 C   0  0  0  0  0  0  0  0  0  0  0  0
    5.9222   11.7568   23.5607 C   0  0  0  0  0  0  0  0  0  0  0  0
    6.6298   11.0075   22.6346 O   0  0  0  0  0  0  0  0  0  0  0  0
    6.6308    9.5877   22.6921 C   0  0  0  0  0  0  0  0  0  0  0  0
  1  2  1  0
  1  6  2  0
 11  1  1  0
  2  3  2  0
 14  2  1  0
  3  5  1  0
  3 13  1  0
 11  4  1  0
  4 14  2  0
  4 15  1  0
 12  5  2  0
  6 12  1  0
  8  7  1  0
  9  8  1  0
 10  9  1  0
 10 11  1  0
 15 16  1  0
 16 17  2  0
 16 18  1  0
 17 25  1  0
 18 19  2  0
 19 20  1  0
 19 22  1  0
 20 21  1  0
 22 23  1  0
 22 25  2  0
 23 24  1  0
 25 26  1  0
 26 27  1  0
M  END
$$$$
