
     RDKit          3D

 27 29  0  0  0  0  0  0  0  0999 V2000
    0.5758   10.1945   25.5043 C   0  0  0  0  0  0  0  0  0  0  0  0
   -0.1357   11.1657   24.8424 C   0  0  0  0  0  0  0  0  0  0  0  0
   -1.4318   11.4976   25.2040 C   0  0  0  0  0  0  0  0  0  0  0  0
    1.8886   10.9713   23.9248 C   0  0  0  0  0  0  0  0  0  0  0  0
   -1.9638   10.8238   26.2357 N   0  0  0  0  0  0  0  0  0  0  0  0
    0.0102    9.5426   26.5310 N   0  0  0  0  0  0  0  0  0  0  0  0
    5.1283    8.9967   27.6692 C   0  0  0  0  0  0  0  0  0  0  0  0
    3.9689    8.1080   27.3034 C   0  0  0  0  0  0  0  0  0  0  0  0
    2.8011    8.9704   26.8764 C   0  0  0  0  0  0  0  0  0  0  0  0
    2.8417    9.1560   25.3587 C   0  0  0  0  0  0  0  0  0  0  0  0
    1.8136   10.0868   24.9306 N   0  0  0  0  0  0  0  0  0  0  0  0
   -1.2427    9.8591   26.8851 C   0  0  0  0  0  0  0  0  0  0  0  0
   -2.1845   12.4936   24.5380 N   0  0  0  0  0  0  0  0  0  0  0  0
    0.6875   11.6216   23.8859 N   0  0  0  0  0  0  0  0  0  0  0  0
    3.0493   11.2255   23.0138 C   0  0  0  0  0  0  0  0  0  0  0  0
    4.1651   11.9251   23.6782 C   0  0  0  0  0  0  0  0  0  0  0  0
    3.8815   13.1351   24.3173 C   0  0  0  0  0  0  0  0  0  0  0  0
    5.4407   11.4148   23.6679 C   0  0  0  0  0  0  0  0  0  0  0  0
    6.4670   12.0918   24.2916 C   0  0  0  0  0  0  0  0  0  0  0  0
    7.7635   11.5873   24.2896 O   0  0  0  0  0  0  0  0  0  0  0  0
    8.1094   10.5984   23.3713 C   0  0  0  0  0  0  0  0  0  0  0  0
    6.1756   13.2998   24.9278 C   0  0  0  0  0  0  0  0  0  0  0  0
    7.2388   13.9527   25.5458 O   0  0  0  0  0  0  0  0  0  0  0  0
    7.0064   14.8131   26.6445 C   0  0  0  0  0  0  0  0  0  0  0  0
    4.9001   13.8161   24.9414 C   0  0  0  0  0  0  0  0  0  0  0  0
    4.6366   15.0172   25.5798 O   0  0  0  0  0  0  0  0  0  0  0  0
    3.3351   15.5869   25.5549 C   0  0  0  0  0  0  0  0  0  0  0  0
  1  2  1  0
  1  6  2  0
 11  1  1  0
  2  3  2  0
 14  2  1  0
  3  5  1  0
  3 13  1  0
 11  4  1  0
  4 14  2  0
  4 15  1  0
 12  5  2  0
  6 12  1  0
  8  7  1  0
  9  8  1  0
 10  9  1  0
 10 11  1  0
 15 16  1  0
 16 17  2  0
 16 18  1  0
 17 25  1  0
 18 19  2  0
 19 20  1  0
 19 22  1  0
 20 21  1  0
 22 23  1  0
 22 25  2  0
 23 24  1  0
 25 26  1  0
 26 27  1  0
M  END
$$$$
