
     RDKit          3D

 27 29  0  0  0  0  0  0  0  0999 V2000
    0.3662   10.0949   25.2392 C   0  0  0  0  0  0  0  0  0  0  0  0
   -0.2561   11.1099   24.5536 C   0  0  0  0  0  0  0  0  0  0  0  0
   -1.5627   11.4832   24.8260 C   0  0  0  0  0  0  0  0  0  0  0  0
    1.8235   10.8594   23.7855 C   0  0  0  0  0  0  0  0  0  0  0  0
   -2.1965   10.8049   25.7953 N   0  0  0  0  0  0  0  0  0  0  0  0
   -0.2999    9.4398   26.2016 N   0  0  0  0  0  0  0  0  0  0  0  0
    2.9102    7.5121   27.8961 C   0  0  0  0  0  0  0  0  0  0  0  0
    2.5955    8.9736   27.7149 C   0  0  0  0  0  0  0  0  0  0  0  0
    3.3136    9.4845   26.4849 C   0  0  0  0  0  0  0  0  0  0  0  0
    2.5963    8.9720   25.2349 C   0  0  0  0  0  0  0  0  0  0  0  0
    1.6392    9.9532   24.7574 N   0  0  0  0  0  0  0  0  0  0  0  0
   -1.5634    9.7963   26.4695 C   0  0  0  0  0  0  0  0  0  0  0  0
   -2.2248   12.5248   24.1339 N   0  0  0  0  0  0  0  0  0  0  0  0
    0.6540   11.5573   23.6749 N   0  0  0  0  0  0  0  0  0  0  0  0
    3.0590   11.0908   22.9719 C   0  0  0  0  0  0  0  0  0  0  0  0
    4.0623   11.9208   23.6650 C   0  0  0  0  0  0  0  0  0  0  0  0
    3.6080   13.0583   24.3379 C   0  0  0  0  0  0  0  0  0  0  0  0
    5.3974   11.5969   23.6487 C   0  0  0  0  0  0  0  0  0  0  0  0
    6.3155   12.3931   24.2997 C   0  0  0  0  0  0  0  0  0  0  0  0
    7.6704   12.0776   24.2921 O   0  0  0  0  0  0  0  0  0  0  0  0
    8.0905   10.8872   23.7027 C   0  0  0  0  0  0  0  0  0  0  0  0
    5.8539   13.5275   24.9697 C   0  0  0  0  0  0  0  0  0  0  0  0
    6.8119   14.3052   25.6145 O   0  0  0  0  0  0  0  0  0  0  0  0
    7.6642   15.1522   24.8677 C   0  0  0  0  0  0  0  0  0  0  0  0
    4.5179   13.8573   24.9894 C   0  0  0  0  0  0  0  0  0  0  0  0
    4.0849   14.9888   25.6615 O   0  0  0  0  0  0  0  0  0  0  0  0
    2.7034   15.3149   25.7272 C   0  0  0  0  0  0  0  0  0  0  0  0
  1  2  1  0
  1  6  2  0
 11  1  1  0
  2  3  2  0
 14  2  1  0
  3  5  1  0
  3 13  1  0
 11  4  1  0
  4 14  2  0
  4 15  1  0
 12  5  2  0
  6 12  1  0
  8  7  1  0
  9  8  1  0
 10  9  1  0
 10 11  1  0
 15 16  1  0
 16 17  2  0
 16 18  1  0
 17 25  1  0
 18 19  2  0
 19 20  1  0
 19 22  1  0
 20 21  1  0
 22 23  1  0
 22 25  2  0
 23 24  1  0
 25 26  1  0
 26 27  1  0
M  END
$$$$
