
     RDKit          3D

 27 29  0  0  0  0  0  0  0  0999 V2000
    0.5958   10.0773   25.3470 C   0  0  0  0  0  0  0  0  0  0  0  0
   -0.0536   11.0754   24.6618 C   0  0  0  0  0  0  0  0  0  0  0  0
   -1.3440   11.4646   24.9847 C   0  0  0  0  0  0  0  0  0  0  0  0
    1.9860   10.7898   23.8039 C   0  0  0  0  0  0  0  0  0  0  0  0
   -1.9342   10.8189   26.0025 N   0  0  0  0  0  0  0  0  0  0  0  0
   -0.0269    9.4548   26.3589 N   0  0  0  0  0  0  0  0  0  0  0  0
    5.3895    7.8815   26.2510 C   0  0  0  0  0  0  0  0  0  0  0  0
    4.2672    8.2819   27.1718 C   0  0  0  0  0  0  0  0  0  0  0  0
    3.5022    9.4291   26.5482 C   0  0  0  0  0  0  0  0  0  0  0  0
    2.8179    8.9411   25.2703 C   0  0  0  0  0  0  0  0  0  0  0  0
    1.8438    9.9137   24.8098 N   0  0  0  0  0  0  0  0  0  0  0  0
   -1.2746    9.8267   26.6756 C   0  0  0  0  0  0  0  0  0  0  0  0
   -2.0333   12.4894   24.2941 N   0  0  0  0  0  0  0  0  0  0  0  0
    0.8159   11.4912   23.7281 N   0  0  0  0  0  0  0  0  0  0  0  0
    3.1824   10.9896   22.9261 C   0  0  0  0  0  0  0  0  0  0  0  0
    4.2720   11.7288   23.5911 C   0  0  0  0  0  0  0  0  0  0  0  0
    3.9363   12.9014   24.2734 C   0  0  0  0  0  0  0  0  0  0  0  0
    5.5730   11.2899   23.5405 C   0  0  0  0  0  0  0  0  0  0  0  0
    6.5736   12.0030   24.1658 C   0  0  0  0  0  0  0  0  0  0  0  0
    7.8953   11.5707   24.1233 O   0  0  0  0  0  0  0  0  0  0  0  0
    8.2668   10.6024   23.1932 C   0  0  0  0  0  0  0  0  0  0  0  0
    6.2302   13.1730   24.8453 C   0  0  0  0  0  0  0  0  0  0  0  0
    7.2689   13.8642   25.4633 O   0  0  0  0  0  0  0  0  0  0  0  0
    7.6852   15.1214   24.9656 C   0  0  0  0  0  0  0  0  0  0  0  0
    4.9291   13.6179   24.8993 C   0  0  0  0  0  0  0  0  0  0  0  0
    4.6140   14.7826   25.5803 O   0  0  0  0  0  0  0  0  0  0  0  0
    3.2673   15.2228   25.6894 C   0  0  0  0  0  0  0  0  0  0  0  0
  1  2  1  0
  1  6  2  0
 11  1  1  0
  2  3  2  0
 14  2  1  0
  3  5  1  0
  3 13  1  0
 11  4  1  0
  4 14  2  0
  4 15  1  0
 12  5  2  0
  6 12  1  0
  8  7  1  0
  9  8  1  0
 10  9  1  0
 10 11  1  0
 15 16  1  0
 16 17  2  0
 16 18  1  0
 17 25  1  0
 18 19  2  0
 19 20  1  0
 19 22  1  0
 20 21  1  0
 22 23  1  0
 22 25  2  0
 23 24  1  0
 25 26  1  0
 26 27  1  0
M  END
$$$$
