
     RDKit          3D

 27 29  0  0  0  0  0  0  0  0999 V2000
    0.5174    9.7522   25.1879 C   0  0  0  0  0  0  0  0  0  0  0  0
   -0.1079   10.8190   24.5893 C   0  0  0  0  0  0  0  0  0  0  0  0
   -1.3958   11.1988   24.9324 C   0  0  0  0  0  0  0  0  0  0  0  0
    1.9371   10.5781   23.7305 C   0  0  0  0  0  0  0  0  0  0  0  0
   -2.0083   10.4736   25.8812 N   0  0  0  0  0  0  0  0  0  0  0  0
   -0.1272    9.0511   26.1325 N   0  0  0  0  0  0  0  0  0  0  0  0
    2.2765    9.3993   28.1399 C   0  0  0  0  0  0  0  0  0  0  0  0
    3.2592    8.4897   27.4510 C   0  0  0  0  0  0  0  0  0  0  0  0
    3.6576    9.1050   26.1273 C   0  0  0  0  0  0  0  0  0  0  0  0
    2.7221    8.5906   25.0319 C   0  0  0  0  0  0  0  0  0  0  0  0
    1.7691    9.6170   24.6513 N   0  0  0  0  0  0  0  0  0  0  0  0
   -1.3725    9.4137   26.4684 C   0  0  0  0  0  0  0  0  0  0  0  0
   -2.0606   12.2933   24.3304 N   0  0  0  0  0  0  0  0  0  0  0  0
    0.7791   11.3030   23.7064 N   0  0  0  0  0  0  0  0  0  0  0  0
    3.1471   10.8366   22.8873 C   0  0  0  0  0  0  0  0  0  0  0  0
    4.1703   11.6466   23.5748 C   0  0  0  0  0  0  0  0  0  0  0  0
    5.5057   11.2604   23.4308 C   0  0  0  0  0  0  0  0  0  0  0  0
    3.8299   12.7386   24.3358 C   0  0  0  0  0  0  0  0  0  0  0  0
    4.8056   13.4753   24.9729 C   0  0  0  0  0  0  0  0  0  0  0  0
    4.4760   14.5836   25.7466 O   0  0  0  0  0  0  0  0  0  0  0  0
    3.1369   14.9374   25.8960 C   0  0  0  0  0  0  0  0  0  0  0  0
    6.1371   13.0833   24.8241 C   0  0  0  0  0  0  0  0  0  0  0  0
    7.0922   13.8528   25.4831 O   0  0  0  0  0  0  0  0  0  0  0  0
    7.6534   14.9879   24.8521 C   0  0  0  0  0  0  0  0  0  0  0  0
    6.4844   11.9903   24.0634 C   0  0  0  0  0  0  0  0  0  0  0  0
    7.8134   11.6216   23.9314 O   0  0  0  0  0  0  0  0  0  0  0  0
    8.1775   10.4449   23.2229 C   0  0  0  0  0  0  0  0  0  0  0  0
  1  2  1  0
  1  6  2  0
 11  1  1  0
  2  3  2  0
 14  2  1  0
  3  5  1  0
  3 13  1  0
 11  4  1  0
  4 14  2  0
  4 15  1  0
 12  5  2  0
  6 12  1  0
  8  7  1  0
  9  8  1  0
 10  9  1  0
 10 11  1  0
 15 16  1  0
 16 17  2  0
 16 18  1  0
 17 25  1  0
 18 19  2  0
 19 20  1  0
 19 22  1  0
 20 21  1  0
 22 23  1  0
 22 25  2  0
 23 24  1  0
 25 26  1  0
 26 27  1  0
M  END
$$$$
