
     RDKit          3D

 27 29  0  0  0  0  0  0  0  0999 V2000
    0.6468   10.3897   25.6255 C   0  0  0  0  0  0  0  0  0  0  0  0
   -0.1419   11.1390   24.7865 C   0  0  0  0  0  0  0  0  0  0  0  0
   -1.4688   11.4116   25.0792 C   0  0  0  0  0  0  0  0  0  0  0  0
    1.9057   10.9593   23.9190 C   0  0  0  0  0  0  0  0  0  0  0  0
   -1.9516   10.9080   26.2258 N   0  0  0  0  0  0  0  0  0  0  0  0
    0.1286    9.9032   26.7630 N   0  0  0  0  0  0  0  0  0  0  0  0
    2.8784    6.9149   26.7891 C   0  0  0  0  0  0  0  0  0  0  0  0
    2.5653    7.1455   25.3343 C   0  0  0  0  0  0  0  0  0  0  0  0
    3.3595    8.3353   24.8408 C   0  0  0  0  0  0  0  0  0  0  0  0
    3.0018    9.5620   25.6815 C   0  0  0  0  0  0  0  0  0  0  0  0
    1.8980   10.2882   25.0806 N   0  0  0  0  0  0  0  0  0  0  0  0
   -1.1537   10.1635   27.0514 C   0  0  0  0  0  0  0  0  0  0  0  0
   -2.3008   12.1805   24.2313 N   0  0  0  0  0  0  0  0  0  0  0  0
    0.6500   11.4725   23.7557 N   0  0  0  0  0  0  0  0  0  0  0  0
    3.0518   11.1370   22.9719 C   0  0  0  0  0  0  0  0  0  0  0  0
    4.1843   11.8735   23.5642 C   0  0  0  0  0  0  0  0  0  0  0  0
    3.9115   13.1047   24.1666 C   0  0  0  0  0  0  0  0  0  0  0  0
    5.4644   11.3763   23.5236 C   0  0  0  0  0  0  0  0  0  0  0  0
    6.5062   12.0878   24.0796 C   0  0  0  0  0  0  0  0  0  0  0  0
    7.8075   11.5969   24.0461 O   0  0  0  0  0  0  0  0  0  0  0  0
    8.0918   10.4695   23.2787 C   0  0  0  0  0  0  0  0  0  0  0  0
    6.2256   13.3167   24.6794 C   0  0  0  0  0  0  0  0  0  0  0  0
    7.3042   14.0042   25.2292 O   0  0  0  0  0  0  0  0  0  0  0  0
    7.8129   15.1607   24.5924 C   0  0  0  0  0  0  0  0  0  0  0  0
    4.9455   13.8201   24.7232 C   0  0  0  0  0  0  0  0  0  0  0  0
    4.6930   15.0425   25.3244 O   0  0  0  0  0  0  0  0  0  0  0  0
    3.3844   15.5964   25.3306 C   0  0  0  0  0  0  0  0  0  0  0  0
  1  2  1  0
  1  6  2  0
 11  1  1  0
  2  3  2  0
 14  2  1  0
  3  5  1  0
  3 13  1  0
 11  4  1  0
  4 14  2  0
  4 15  1  0
 12  5  2  0
  6 12  1  0
  8  7  1  0
  9  8  1  0
 10  9  1  0
 10 11  1  0
 15 16  1  0
 16 17  2  0
 16 18  1  0
 17 25  1  0
 18 19  2  0
 19 20  1  0
 19 22  1  0
 20 21  1  0
 22 23  1  0
 22 25  2  0
 23 24  1  0
 25 26  1  0
 26 27  1  0
M  END
$$$$
