
     RDKit          3D

 27 29  0  0  0  0  0  0  0  0999 V2000
    0.4560   10.2122   24.1859 C   0  0  0  0  0  0  0  0  0  0  0  0
    0.3178   10.4644   25.5294 C   0  0  0  0  0  0  0  0  0  0  0  0
   -0.9260   10.5332   26.1368 C   0  0  0  0  0  0  0  0  0  0  0  0
    2.4839   10.4450   24.9953 C   0  0  0  0  0  0  0  0  0  0  0  0
   -1.9957   10.3411   25.3492 N   0  0  0  0  0  0  0  0  0  0  0  0
   -0.6369   10.0255   23.4310 N   0  0  0  0  0  0  0  0  0  0  0  0
    2.1587    7.0320   21.5752 C   0  0  0  0  0  0  0  0  0  0  0  0
    2.7665    7.5569   22.8491 C   0  0  0  0  0  0  0  0  0  0  0  0
    3.4067    8.9001   22.5740 C   0  0  0  0  0  0  0  0  0  0  0  0
    2.3212    9.9773   22.5428 C   0  0  0  0  0  0  0  0  0  0  0  0
    1.7884   10.2036   23.8738 N   0  0  0  0  0  0  0  0  0  0  0  0
   -1.8421   10.0908   24.0127 C   0  0  0  0  0  0  0  0  0  0  0  0
   -1.0938   10.7915   27.5178 N   0  0  0  0  0  0  0  0  0  0  0  0
    1.5680   10.6020   25.9970 N   0  0  0  0  0  0  0  0  0  0  0  0
    3.9710   10.5229   25.1514 C   0  0  0  0  0  0  0  0  0  0  0  0
    4.4718   11.9070   25.2477 C   0  0  0  0  0  0  0  0  0  0  0  0
    3.7456   12.9051   24.5923 C   0  0  0  0  0  0  0  0  0  0  0  0
    5.6134   12.2105   25.9492 C   0  0  0  0  0  0  0  0  0  0  0  0
    6.0633   13.5119   26.0186 C   0  0  0  0  0  0  0  0  0  0  0  0
    7.2175   13.8343   26.7253 O   0  0  0  0  0  0  0  0  0  0  0  0
    7.8949   12.8336   27.4185 C   0  0  0  0  0  0  0  0  0  0  0  0
    5.3324   14.5031   25.3614 C   0  0  0  0  0  0  0  0  0  0  0  0
    5.8193   15.8041   25.4553 O   0  0  0  0  0  0  0  0  0  0  0  0
    6.6512   16.3299   24.4389 C   0  0  0  0  0  0  0  0  0  0  0  0
    4.1883   14.2054   24.6570 C   0  0  0  0  0  0  0  0  0  0  0  0
    3.4805   15.2074   24.0131 O   0  0  0  0  0  0  0  0  0  0  0  0
    2.3203   14.9067   23.2497 C   0  0  0  0  0  0  0  0  0  0  0  0
  1  2  1  0
  1  6  2  0
 11  1  1  0
  2  3  2  0
 14  2  1  0
  3  5  1  0
  3 13  1  0
 11  4  1  0
  4 14  2  0
  4 15  1  0
 12  5  2  0
  6 12  1  0
  8  7  1  0
  9  8  1  0
 10  9  1  0
 10 11  1  0
 15 16  1  0
 16 17  2  0
 16 18  1  0
 17 25  1  0
 18 19  2  0
 19 20  1  0
 19 22  1  0
 20 21  1  0
 22 23  1  0
 22 25  2  0
 23 24  1  0
 25 26  1  0
 26 27  1  0
M  END
$$$$
