
     RDKit          3D

 27 29  0  0  0  0  0  0  0  0999 V2000
    0.7408   10.4030   25.6148 C   0  0  0  0  0  0  0  0  0  0  0  0
   -0.0378   11.2011   24.8121 C   0  0  0  0  0  0  0  0  0  0  0  0
   -1.3594   11.4817   25.1208 C   0  0  0  0  0  0  0  0  0  0  0  0
    2.0046   11.0272   23.9312 C   0  0  0  0  0  0  0  0  0  0  0  0
   -1.8474   10.9357   26.2456 N   0  0  0  0  0  0  0  0  0  0  0  0
    0.2176    9.8751   26.7314 N   0  0  0  0  0  0  0  0  0  0  0  0
    2.3036    6.4348   25.2007 C   0  0  0  0  0  0  0  0  0  0  0  0
    3.1739    7.1286   26.2151 C   0  0  0  0  0  0  0  0  0  0  0  0
    2.5494    8.4596   26.5736 C   0  0  0  0  0  0  0  0  0  0  0  0
    3.0823    9.5362   25.6268 C   0  0  0  0  0  0  0  0  0  0  0  0
    1.9889   10.3057   25.0620 N   0  0  0  0  0  0  0  0  0  0  0  0
   -1.0596   10.1429   27.0350 C   0  0  0  0  0  0  0  0  0  0  0  0
   -2.1810   12.3004   24.3102 N   0  0  0  0  0  0  0  0  0  0  0  0
    0.7568   11.5671   23.7946 N   0  0  0  0  0  0  0  0  0  0  0  0
    3.1510   11.2281   22.9892 C   0  0  0  0  0  0  0  0  0  0  0  0
    4.2719   11.9743   23.5914 C   0  0  0  0  0  0  0  0  0  0  0  0
    4.0030   13.2487   24.0982 C   0  0  0  0  0  0  0  0  0  0  0  0
    5.5382   11.4447   23.6498 C   0  0  0  0  0  0  0  0  0  0  0  0
    6.5697   12.1657   24.2127 C   0  0  0  0  0  0  0  0  0  0  0  0
    7.8570   11.6423   24.2790 O   0  0  0  0  0  0  0  0  0  0  0  0
    8.2026   10.5742   23.4540 C   0  0  0  0  0  0  0  0  0  0  0  0
    6.2931   13.4378   24.7168 C   0  0  0  0  0  0  0  0  0  0  0  0
    7.3610   14.1336   25.2769 O   0  0  0  0  0  0  0  0  0  0  0  0
    7.5417   14.1550   26.6800 C   0  0  0  0  0  0  0  0  0  0  0  0
    5.0268   13.9738   24.6610 C   0  0  0  0  0  0  0  0  0  0  0  0
    4.7779   15.2388   25.1684 O   0  0  0  0  0  0  0  0  0  0  0  0
    3.4916   15.8316   25.0528 C   0  0  0  0  0  0  0  0  0  0  0  0
  1  2  1  0
  1  6  2  0
 11  1  1  0
  2  3  2  0
 14  2  1  0
  3  5  1  0
  3 13  1  0
 11  4  1  0
  4 14  2  0
  4 15  1  0
 12  5  2  0
  6 12  1  0
  8  7  1  0
  9  8  1  0
 10  9  1  0
 10 11  1  0
 15 16  1  0
 16 17  2  0
 16 18  1  0
 17 25  1  0
 18 19  2  0
 19 20  1  0
 19 22  1  0
 20 21  1  0
 22 23  1  0
 22 25  2  0
 23 24  1  0
 25 26  1  0
 26 27  1  0
M  END
$$$$
