
     RDKit          3D

 27 29  0  0  0  0  0  0  0  0999 V2000
    0.7185   10.3529   25.8004 C   0  0  0  0  0  0  0  0  0  0  0  0
   -0.0214   11.1411   24.9525 C   0  0  0  0  0  0  0  0  0  0  0  0
   -1.3513   11.4387   25.2041 C   0  0  0  0  0  0  0  0  0  0  0  0
    2.0518   10.9327   24.1549 C   0  0  0  0  0  0  0  0  0  0  0  0
   -1.8872   10.9196   26.3197 N   0  0  0  0  0  0  0  0  0  0  0  0
    0.1479    9.8519   26.9061 N   0  0  0  0  0  0  0  0  0  0  0  0
    4.9108    7.3967   24.4040 C   0  0  0  0  0  0  0  0  0  0  0  0
    3.4313    7.6480   24.2784 C   0  0  0  0  0  0  0  0  0  0  0  0
    2.8679    7.9738   25.6445 C   0  0  0  0  0  0  0  0  0  0  0  0
    3.0499    9.4672   25.9202 C   0  0  0  0  0  0  0  0  0  0  0  0
    1.9861   10.2343   25.2984 N   0  0  0  0  0  0  0  0  0  0  0  0
   -1.1377   10.1363   27.1546 C   0  0  0  0  0  0  0  0  0  0  0  0
   -2.1336   12.2477   24.3462 N   0  0  0  0  0  0  0  0  0  0  0  0
    0.8151   11.4800   23.9595 N   0  0  0  0  0  0  0  0  0  0  0  0
    3.2354   11.1052   23.2542 C   0  0  0  0  0  0  0  0  0  0  0  0
    4.3213   11.8921   23.8686 C   0  0  0  0  0  0  0  0  0  0  0  0
    3.9738   13.0846   24.5092 C   0  0  0  0  0  0  0  0  0  0  0  0
    5.6298   11.4773   23.8117 C   0  0  0  0  0  0  0  0  0  0  0  0
    6.6266   12.2347   24.3890 C   0  0  0  0  0  0  0  0  0  0  0  0
    7.9559   11.8273   24.3394 O   0  0  0  0  0  0  0  0  0  0  0  0
    8.2757   10.6146   23.7327 C   0  0  0  0  0  0  0  0  0  0  0  0
    6.2715   13.4245   25.0271 C   0  0  0  0  0  0  0  0  0  0  0  0
    7.3066   14.1605   25.5974 O   0  0  0  0  0  0  0  0  0  0  0  0
    8.1165   14.9956   24.7922 C   0  0  0  0  0  0  0  0  0  0  0  0
    4.9627   13.8454   25.0873 C   0  0  0  0  0  0  0  0  0  0  0  0
    4.6360   15.0304   25.7266 O   0  0  0  0  0  0  0  0  0  0  0  0
    3.3210   15.5634   25.6485 C   0  0  0  0  0  0  0  0  0  0  0  0
  1  2  1  0
  1  6  2  0
 11  1  1  0
  2  3  2  0
 14  2  1  0
  3  5  1  0
  3 13  1  0
 11  4  1  0
  4 14  2  0
  4 15  1  0
 12  5  2  0
  6 12  1  0
  8  7  1  0
  9  8  1  0
 10  9  1  0
 10 11  1  0
 15 16  1  0
 16 17  2  0
 16 18  1  0
 17 25  1  0
 18 19  2  0
 19 20  1  0
 19 22  1  0
 20 21  1  0
 22 23  1  0
 22 25  2  0
 23 24  1  0
 25 26  1  0
 26 27  1  0
M  END
$$$$
