
     RDKit          3D

 27 29  0  0  0  0  0  0  0  0999 V2000
    0.7866   10.2233   25.5428 C   0  0  0  0  0  0  0  0  0  0  0  0
    0.0431   11.0282   24.7140 C   0  0  0  0  0  0  0  0  0  0  0  0
   -1.2904   11.3071   24.9682 C   0  0  0  0  0  0  0  0  0  0  0  0
    2.1212   10.8603   23.9197 C   0  0  0  0  0  0  0  0  0  0  0  0
   -1.8261   10.7524   26.0667 N   0  0  0  0  0  0  0  0  0  0  0  0
    0.2160    9.6867   26.6318 N   0  0  0  0  0  0  0  0  0  0  0  0
    3.0150    6.4283   26.5529 C   0  0  0  0  0  0  0  0  0  0  0  0
    2.5183    6.9845   25.2446 C   0  0  0  0  0  0  0  0  0  0  0  0
    3.4290    8.1121   24.8097 C   0  0  0  0  0  0  0  0  0  0  0  0
    3.1253    9.3551   25.6478 C   0  0  0  0  0  0  0  0  0  0  0  0
    2.0571   10.1297   25.0431 N   0  0  0  0  0  0  0  0  0  0  0  0
   -1.0729    9.9528   26.8827 C   0  0  0  0  0  0  0  0  0  0  0  0
   -2.0764   12.1327   24.1299 N   0  0  0  0  0  0  0  0  0  0  0  0
    0.8805   11.4019   23.7344 N   0  0  0  0  0  0  0  0  0  0  0  0
    3.3068   11.0681   23.0292 C   0  0  0  0  0  0  0  0  0  0  0  0
    4.3622   11.8896   23.6516 C   0  0  0  0  0  0  0  0  0  0  0  0
    3.9654   13.0371   24.3436 C   0  0  0  0  0  0  0  0  0  0  0  0
    5.6894   11.5485   23.5534 C   0  0  0  0  0  0  0  0  0  0  0  0
    6.6566   12.3371   24.1395 C   0  0  0  0  0  0  0  0  0  0  0  0
    8.0044   12.0042   24.0486 O   0  0  0  0  0  0  0  0  0  0  0  0
    8.3709   10.7995   23.4526 C   0  0  0  0  0  0  0  0  0  0  0  0
    6.2523   13.4816   24.8289 C   0  0  0  0  0  0  0  0  0  0  0  0
    7.2587   14.2511   25.4064 O   0  0  0  0  0  0  0  0  0  0  0  0
    7.7613   15.3899   24.7339 C   0  0  0  0  0  0  0  0  0  0  0  0
    4.9245   13.8286   24.9306 C   0  0  0  0  0  0  0  0  0  0  0  0
    4.5489   14.9699   25.6205 O   0  0  0  0  0  0  0  0  0  0  0  0
    3.1780   15.3084   25.7799 C   0  0  0  0  0  0  0  0  0  0  0  0
  1  2  1  0
  1  6  2  0
 11  1  1  0
  2  3  2  0
 14  2  1  0
  3  5  1  0
  3 13  1  0
 11  4  1  0
  4 14  2  0
  4 15  1  0
 12  5  2  0
  6 12  1  0
  8  7  1  0
  9  8  1  0
 10  9  1  0
 10 11  1  0
 15 16  1  0
 16 17  2  0
 16 18  1  0
 17 25  1  0
 18 19  2  0
 19 20  1  0
 19 22  1  0
 20 21  1  0
 22 23  1  0
 22 25  2  0
 23 24  1  0
 25 26  1  0
 26 27  1  0
M  END
$$$$
