
     RDKit          3D

 27 29  0  0  0  0  0  0  0  0999 V2000
    0.4325    9.9043   25.0375 C   0  0  0  0  0  0  0  0  0  0  0  0
   -0.3286   10.9507   24.5757 C   0  0  0  0  0  0  0  0  0  0  0  0
   -1.5793   10.7530   24.0121 C   0  0  0  0  0  0  0  0  0  0  0  0
    1.5938   11.7335   25.3936 C   0  0  0  0  0  0  0  0  0  0  0  0
   -2.0160    9.4861   23.9372 N   0  0  0  0  0  0  0  0  0  0  0  0
   -0.0380    8.6516   24.9454 N   0  0  0  0  0  0  0  0  0  0  0  0
    1.0341    8.8568   29.4041 C   0  0  0  0  0  0  0  0  0  0  0  0
    1.6148    8.4923   28.0634 C   0  0  0  0  0  0  0  0  0  0  0  0
    2.5770    9.5771   27.6305 C   0  0  0  0  0  0  0  0  0  0  0  0
    2.6680    9.5884   26.1037 C   0  0  0  0  0  0  0  0  0  0  0  0
    1.6072   10.3996   25.5352 N   0  0  0  0  0  0  0  0  0  0  0  0
   -1.2464    8.4542   24.4014 C   0  0  0  0  0  0  0  0  0  0  0  0
   -2.3815   11.8141   23.5297 N   0  0  0  0  0  0  0  0  0  0  0  0
    0.4026   12.0522   24.8050 N   0  0  0  0  0  0  0  0  0  0  0  0
    2.6556   12.7080   25.7999 C   0  0  0  0  0  0  0  0  0  0  0  0
    3.9226   12.5231   25.0675 C   0  0  0  0  0  0  0  0  0  0  0  0
    4.1281   11.2972   24.4288 C   0  0  0  0  0  0  0  0  0  0  0  0
    4.8735   13.5135   25.0161 C   0  0  0  0  0  0  0  0  0  0  0  0
    6.0521   13.3128   24.3296 C   0  0  0  0  0  0  0  0  0  0  0  0
    7.0239   14.3064   24.2687 O   0  0  0  0  0  0  0  0  0  0  0  0
    6.7951   15.5244   24.9050 C   0  0  0  0  0  0  0  0  0  0  0  0
    6.2498   12.0856   23.6941 C   0  0  0  0  0  0  0  0  0  0  0  0
    7.4523   11.9221   23.0117 O   0  0  0  0  0  0  0  0  0  0  0  0
    7.4662   11.3528   21.7165 C   0  0  0  0  0  0  0  0  0  0  0  0
    5.3012   11.0897   23.7422 C   0  0  0  0  0  0  0  0  0  0  0  0
    5.5214    9.8803   23.1031 O   0  0  0  0  0  0  0  0  0  0  0  0
    4.5967    8.8088   23.2299 C   0  0  0  0  0  0  0  0  0  0  0  0
  1  2  1  0
  1  6  2  0
 11  1  1  0
  2  3  2  0
 14  2  1  0
  3  5  1  0
  3 13  1  0
 11  4  1  0
  4 14  2  0
  4 15  1  0
 12  5  2  0
  6 12  1  0
  8  7  1  0
  9  8  1  0
 10  9  1  0
 10 11  1  0
 15 16  1  0
 16 17  2  0
 16 18  1  0
 17 25  1  0
 18 19  2  0
 19 20  1  0
 19 22  1  0
 20 21  1  0
 22 23  1  0
 22 25  2  0
 23 24  1  0
 25 26  1  0
 26 27  1  0
M  END
$$$$
