
     RDKit          3D

 27 29  0  0  0  0  0  0  0  0999 V2000
    0.9174   11.2688   25.8430 C   0  0  0  0  0  0  0  0  0  0  0  0
   -0.0496   11.2644   24.8670 C   0  0  0  0  0  0  0  0  0  0  0  0
   -1.3989   11.1886   25.1743 C   0  0  0  0  0  0  0  0  0  0  0  0
    1.9648   11.3983   23.9175 C   0  0  0  0  0  0  0  0  0  0  0  0
   -1.7205   11.1193   26.4755 N   0  0  0  0  0  0  0  0  0  0  0  0
    0.5569   11.1981   27.1330 N   0  0  0  0  0  0  0  0  0  0  0  0
    4.3968   14.3364   27.0684 C   0  0  0  0  0  0  0  0  0  0  0  0
    3.7040   13.8308   25.8306 C   0  0  0  0  0  0  0  0  0  0  0  0
    4.3035   12.4979   25.4387 C   0  0  0  0  0  0  0  0  0  0  0  0
    3.4093   11.3718   25.9602 C   0  0  0  0  0  0  0  0  0  0  0  0
    2.1460   11.3509   25.2459 N   0  0  0  0  0  0  0  0  0  0  0  0
   -0.7461   11.1246   27.4362 C   0  0  0  0  0  0  0  0  0  0  0  0
   -2.4129   11.1825   24.1873 N   0  0  0  0  0  0  0  0  0  0  0  0
    0.6162   11.3441   23.7047 N   0  0  0  0  0  0  0  0  0  0  0  0
    3.0134   11.5005   22.8536 C   0  0  0  0  0  0  0  0  0  0  0  0
    4.0860   10.4984   22.9989 C   0  0  0  0  0  0  0  0  0  0  0  0
    3.7068    9.1733   23.2299 C   0  0  0  0  0  0  0  0  0  0  0  0
    5.4120   10.8486   22.9174 C   0  0  0  0  0  0  0  0  0  0  0  0
    6.3952    9.8932   23.0628 C   0  0  0  0  0  0  0  0  0  0  0  0
    7.7420   10.2330   22.9826 O   0  0  0  0  0  0  0  0  0  0  0  0
    8.0985   11.5180   22.5796 C   0  0  0  0  0  0  0  0  0  0  0  0
    6.0083    8.5719   23.2932 C   0  0  0  0  0  0  0  0  0  0  0  0
    7.0306    7.6372   23.4344 O   0  0  0  0  0  0  0  0  0  0  0  0
    7.3521    7.1184   24.7108 C   0  0  0  0  0  0  0  0  0  0  0  0
    4.6819    8.2148   23.3760 C   0  0  0  0  0  0  0  0  0  0  0  0
    4.3237    6.8963   23.6055 O   0  0  0  0  0  0  0  0  0  0  0  0
    2.9960    6.4487   23.3684 C   0  0  0  0  0  0  0  0  0  0  0  0
  1  2  1  0
  1  6  2  0
 11  1  1  0
  2  3  2  0
 14  2  1  0
  3  5  1  0
  3 13  1  0
 11  4  1  0
  4 14  2  0
  4 15  1  0
 12  5  2  0
  6 12  1  0
  8  7  1  0
  9  8  1  0
 10  9  1  0
 10 11  1  0
 15 16  1  0
 16 17  2  0
 16 18  1  0
 17 25  1  0
 18 19  2  0
 19 20  1  0
 19 22  1  0
 20 21  1  0
 22 23  1  0
 22 25  2  0
 23 24  1  0
 25 26  1  0
 26 27  1  0
M  END
$$$$
