
     RDKit          3D

 27 29  0  0  0  0  0  0  0  0999 V2000
    0.5265   10.4376   25.9645 C   0  0  0  0  0  0  0  0  0  0  0  0
    0.1451   11.0048   24.7727 C   0  0  0  0  0  0  0  0  0  0  0  0
   -1.1429   11.4721   24.5638 C   0  0  0  0  0  0  0  0  0  0  0  0
    2.2902   10.4028   24.6570 C   0  0  0  0  0  0  0  0  0  0  0  0
   -2.0058   11.3448   25.5838 N   0  0  0  0  0  0  0  0  0  0  0  0
   -0.3645   10.3277   26.9611 N   0  0  0  0  0  0  0  0  0  0  0  0
    1.9474    5.7922   26.0345 C   0  0  0  0  0  0  0  0  0  0  0  0
    1.6283    7.2359   26.3203 C   0  0  0  0  0  0  0  0  0  0  0  0
    2.9175    7.9850   26.5781 C   0  0  0  0  0  0  0  0  0  0  0  0
    2.5923    9.4341   26.9440 C   0  0  0  0  0  0  0  0  0  0  0  0
    1.8429   10.0737   25.8782 N   0  0  0  0  0  0  0  0  0  0  0  0
   -1.6112   10.7776   26.7649 C   0  0  0  0  0  0  0  0  0  0  0  0
   -1.5593   12.0598   23.3459 N   0  0  0  0  0  0  0  0  0  0  0  0
    1.2383   10.9707   23.9953 N   0  0  0  0  0  0  0  0  0  0  0  0
    3.6677   10.2079   24.1034 C   0  0  0  0  0  0  0  0  0  0  0  0
    4.4590   11.4523   24.0668 C   0  0  0  0  0  0  0  0  0  0  0  0
    5.4853   11.5392   23.1222 C   0  0  0  0  0  0  0  0  0  0  0  0
    4.2060   12.4900   24.9310 C   0  0  0  0  0  0  0  0  0  0  0  0
    4.9645   13.6400   24.8798 C   0  0  0  0  0  0  0  0  0  0  0  0
    4.7198   14.6990   25.7484 O   0  0  0  0  0  0  0  0  0  0  0  0
    3.6884   14.5937   26.6789 C   0  0  0  0  0  0  0  0  0  0  0  0
    5.9877   13.7192   23.9335 C   0  0  0  0  0  0  0  0  0  0  0  0
    6.7306   14.8965   23.9137 O   0  0  0  0  0  0  0  0  0  0  0  0
    7.8770   15.0309   24.7318 C   0  0  0  0  0  0  0  0  0  0  0  0
    6.2461   12.6832   23.0653 C   0  0  0  0  0  0  0  0  0  0  0  0
    7.2676   12.7862   22.1350 O   0  0  0  0  0  0  0  0  0  0  0  0
    7.6026   11.6906   21.2944 C   0  0  0  0  0  0  0  0  0  0  0  0
  1  2  1  0
  1  6  2  0
 11  1  1  0
  2  3  2  0
 14  2  1  0
  3  5  1  0
  3 13  1  0
 11  4  1  0
  4 14  2  0
  4 15  1  0
 12  5  2  0
  6 12  1  0
  8  7  1  0
  9  8  1  0
 10  9  1  0
 10 11  1  0
 15 16  1  0
 16 17  2  0
 16 18  1  0
 17 25  1  0
 18 19  2  0
 19 20  1  0
 19 22  1  0
 20 21  1  0
 22 23  1  0
 22 25  2  0
 23 24  1  0
 25 26  1  0
 26 27  1  0
M  END
$$$$
