
     RDKit          3D

 27 29  0  0  0  0  0  0  0  0999 V2000
    0.2222    9.7555   25.0549 C   0  0  0  0  0  0  0  0  0  0  0  0
    0.0309   11.1152   25.1005 C   0  0  0  0  0  0  0  0  0  0  0  0
   -1.1955   11.6918   24.8101 C   0  0  0  0  0  0  0  0  0  0  0  0
    2.1440   10.6430   25.6382 C   0  0  0  0  0  0  0  0  0  0  0  0
   -2.1937   10.8574   24.4805 N   0  0  0  0  0  0  0  0  0  0  0  0
   -0.7999    8.9535   24.7212 N   0  0  0  0  0  0  0  0  0  0  0  0
    2.2649    8.3638   28.6781 C   0  0  0  0  0  0  0  0  0  0  0  0
    2.4865    7.2329   27.7086 C   0  0  0  0  0  0  0  0  0  0  0  0
    1.4811    7.3431   26.5831 C   0  0  0  0  0  0  0  0  0  0  0  0
    2.0952    8.1495   25.4377 C   0  0  0  0  0  0  0  0  0  0  0  0
    1.5214    9.4817   25.3864 N   0  0  0  0  0  0  0  0  0  0  0  0
   -1.9880    9.5052   24.4394 C   0  0  0  0  0  0  0  0  0  0  0  0
   -1.4169   13.0888   24.8502 N   0  0  0  0  0  0  0  0  0  0  0  0
    1.2171   11.6306   25.4581 N   0  0  0  0  0  0  0  0  0  0  0  0
    3.5697   10.8473   26.0475 C   0  0  0  0  0  0  0  0  0  0  0  0
    4.3013   11.7697   25.1587 C   0  0  0  0  0  0  0  0  0  0  0  0
    4.1247   13.1410   25.3622 C   0  0  0  0  0  0  0  0  0  0  0  0
    5.1234   11.3047   24.1610 C   0  0  0  0  0  0  0  0  0  0  0  0
    5.7912   12.1883   23.3401 C   0  0  0  0  0  0  0  0  0  0  0  0
    6.6271   11.7322   22.3258 O   0  0  0  0  0  0  0  0  0  0  0  0
    6.8771   10.3666   22.2102 C   0  0  0  0  0  0  0  0  0  0  0  0
    5.6096   13.5565   23.5497 C   0  0  0  0  0  0  0  0  0  0  0  0
    6.3012   14.4158   22.7001 O   0  0  0  0  0  0  0  0  0  0  0  0
    5.6560   14.9771   21.5730 C   0  0  0  0  0  0  0  0  0  0  0  0
    4.7874   14.0283   24.5473 C   0  0  0  0  0  0  0  0  0  0  0  0
    4.6238   15.3913   24.7350 O   0  0  0  0  0  0  0  0  0  0  0  0
    3.8919   15.8925   25.8451 C   0  0  0  0  0  0  0  0  0  0  0  0
  1  2  1  0
  1  6  2  0
 11  1  1  0
  2  3  2  0
 14  2  1  0
  3  5  1  0
  3 13  1  0
 11  4  1  0
  4 14  2  0
  4 15  1  0
 12  5  2  0
  6 12  1  0
  8  7  1  0
  9  8  1  0
 10  9  1  0
 10 11  1  0
 15 16  1  0
 16 17  2  0
 16 18  1  0
 17 25  1  0
 18 19  2  0
 19 20  1  0
 19 22  1  0
 20 21  1  0
 22 23  1  0
 22 25  2  0
 23 24  1  0
 25 26  1  0
 26 27  1  0
M  END
$$$$
