
     RDKit          3D

 27 29  0  0  0  0  0  0  0  0999 V2000
    0.8815   11.5416   25.5931 C   0  0  0  0  0  0  0  0  0  0  0  0
   -0.0699   11.5166   24.6022 C   0  0  0  0  0  0  0  0  0  0  0  0
   -1.4123   11.3154   24.8817 C   0  0  0  0  0  0  0  0  0  0  0  0
    1.9387   11.8662   23.6962 C   0  0  0  0  0  0  0  0  0  0  0  0
   -1.7433   11.1450   26.1712 N   0  0  0  0  0  0  0  0  0  0  0  0
    0.5121   11.3674   26.8707 N   0  0  0  0  0  0  0  0  0  0  0  0
    5.8662   13.9073   25.8759 C   0  0  0  0  0  0  0  0  0  0  0  0
    4.4374   14.0424   25.4199 C   0  0  0  0  0  0  0  0  0  0  0  0
    3.5468   13.2377   26.3414 C   0  0  0  0  0  0  0  0  0  0  0  0
    3.3553   11.8367   25.7583 C   0  0  0  0  0  0  0  0  0  0  0  0
    2.1067   11.7564   25.0226 N   0  0  0  0  0  0  0  0  0  0  0  0
   -0.7844   11.1724   27.1470 C   0  0  0  0  0  0  0  0  0  0  0  0
   -2.4102   11.2855   23.8789 N   0  0  0  0  0  0  0  0  0  0  0  0
    0.6016   11.7168   23.4578 N   0  0  0  0  0  0  0  0  0  0  0  0
    2.9886   12.1138   22.6578 C   0  0  0  0  0  0  0  0  0  0  0  0
    4.1862   11.2703   22.8320 C   0  0  0  0  0  0  0  0  0  0  0  0
    3.9890    9.9062   23.0630 C   0  0  0  0  0  0  0  0  0  0  0  0
    5.4524   11.8006   22.7765 C   0  0  0  0  0  0  0  0  0  0  0  0
    6.5549   10.9910   22.9486 C   0  0  0  0  0  0  0  0  0  0  0  0
    7.8431   11.5137   22.8949 O   0  0  0  0  0  0  0  0  0  0  0  0
    8.0249   12.8429   22.5193 C   0  0  0  0  0  0  0  0  0  0  0  0
    6.3497    9.6295   23.1789 C   0  0  0  0  0  0  0  0  0  0  0  0
    7.4881    8.8459   23.3475 O   0  0  0  0  0  0  0  0  0  0  0  0
    8.6031    9.3503   24.0574 C   0  0  0  0  0  0  0  0  0  0  0  0
    5.0839    9.0925   23.2357 C   0  0  0  0  0  0  0  0  0  0  0  0
    4.9067    7.7377   23.4657 O   0  0  0  0  0  0  0  0  0  0  0  0
    3.6444    7.1204   23.2541 C   0  0  0  0  0  0  0  0  0  0  0  0
  1  2  1  0
  1  6  2  0
 11  1  1  0
  2  3  2  0
 14  2  1  0
  3  5  1  0
  3 13  1  0
 11  4  1  0
  4 14  2  0
  4 15  1  0
 12  5  2  0
  6 12  1  0
  8  7  1  0
  9  8  1  0
 10  9  1  0
 10 11  1  0
 15 16  1  0
 16 17  2  0
 16 18  1  0
 17 25  1  0
 18 19  2  0
 19 20  1  0
 19 22  1  0
 20 21  1  0
 22 23  1  0
 22 25  2  0
 23 24  1  0
 25 26  1  0
 26 27  1  0
M  END
$$$$
