
     RDKit          3D

 27 29  0  0  0  0  0  0  0  0999 V2000
    0.6414   10.3427   25.7813 C   0  0  0  0  0  0  0  0  0  0  0  0
   -0.1428   11.1013   24.9464 C   0  0  0  0  0  0  0  0  0  0  0  0
   -1.4753   11.3586   25.2277 C   0  0  0  0  0  0  0  0  0  0  0  0
    1.9165   10.9530   24.1012 C   0  0  0  0  0  0  0  0  0  0  0  0
   -1.9681   10.8305   26.3589 N   0  0  0  0  0  0  0  0  0  0  0  0
    0.1131    9.8316   26.9033 N   0  0  0  0  0  0  0  0  0  0  0  0
    4.9683    7.4467   24.6845 C   0  0  0  0  0  0  0  0  0  0  0  0
    3.4895    7.5624   24.4249 C   0  0  0  0  0  0  0  0  0  0  0  0
    2.8005    8.0241   25.6906 C   0  0  0  0  0  0  0  0  0  0  0  0
    3.0018    9.5319   25.8512 C   0  0  0  0  0  0  0  0  0  0  0  0
    1.8999   10.2607   25.2501 N   0  0  0  0  0  0  0  0  0  0  0  0
   -1.1746   10.0770   27.1805 C   0  0  0  0  0  0  0  0  0  0  0  0
   -2.3028   12.1366   24.3838 N   0  0  0  0  0  0  0  0  0  0  0  0
    0.6589   11.4596   23.9318 N   0  0  0  0  0  0  0  0  0  0  0  0
    3.0726   11.1565   23.1716 C   0  0  0  0  0  0  0  0  0  0  0  0
    4.1311   12.0112   23.7418 C   0  0  0  0  0  0  0  0  0  0  0  0
    5.4431   11.5317   23.6992 C   0  0  0  0  0  0  0  0  0  0  0  0
    3.8442   13.2326   24.3015 C   0  0  0  0  0  0  0  0  0  0  0  0
    4.8516   14.0094   24.8329 C   0  0  0  0  0  0  0  0  0  0  0  0
    4.5763   15.2484   25.4027 O   0  0  0  0  0  0  0  0  0  0  0  0
    3.2529   15.6690   25.5144 C   0  0  0  0  0  0  0  0  0  0  0  0
    6.1595   13.5236   24.7865 C   0  0  0  0  0  0  0  0  0  0  0  0
    7.1480   14.3374   25.3334 O   0  0  0  0  0  0  0  0  0  0  0  0
    7.7440   14.0023   26.5719 C   0  0  0  0  0  0  0  0  0  0  0  0
    6.4532   12.3009   24.2274 C   0  0  0  0  0  0  0  0  0  0  0  0
    7.7597   11.8409   24.1936 O   0  0  0  0  0  0  0  0  0  0  0  0
    8.0816   10.6019   23.5768 C   0  0  0  0  0  0  0  0  0  0  0  0
  1  2  1  0
  1  6  2  0
 11  1  1  0
  2  3  2  0
 14  2  1  0
  3  5  1  0
  3 13  1  0
 11  4  1  0
  4 14  2  0
  4 15  1  0
 12  5  2  0
  6 12  1  0
  8  7  1  0
  9  8  1  0
 10  9  1  0
 10 11  1  0
 15 16  1  0
 16 17  2  0
 16 18  1  0
 17 25  1  0
 18 19  2  0
 19 20  1  0
 19 22  1  0
 20 21  1  0
 22 23  1  0
 22 25  2  0
 23 24  1  0
 25 26  1  0
 26 27  1  0
M  END
$$$$
