
     RDKit          3D

 27 29  0  0  0  0  0  0  0  0999 V2000
    0.7012   11.4504   25.5328 C   0  0  0  0  0  0  0  0  0  0  0  0
   -0.2552   11.6006   24.5580 C   0  0  0  0  0  0  0  0  0  0  0  0
   -1.5905   11.3132   24.7926 C   0  0  0  0  0  0  0  0  0  0  0  0
    1.7386   12.1760   23.7388 C   0  0  0  0  0  0  0  0  0  0  0  0
   -1.9093   10.8790   26.0219 N   0  0  0  0  0  0  0  0  0  0  0  0
    0.3440   11.0139   26.7498 N   0  0  0  0  0  0  0  0  0  0  0  0
    5.0662   14.3250   26.2441 C   0  0  0  0  0  0  0  0  0  0  0  0
    3.5684   14.1744   26.2046 C   0  0  0  0  0  0  0  0  0  0  0  0
    3.1884   12.8511   26.8326 C   0  0  0  0  0  0  0  0  0  0  0  0
    3.1679   11.7692   25.7516 C   0  0  0  0  0  0  0  0  0  0  0  0
    1.9173   11.8065   25.0159 N   0  0  0  0  0  0  0  0  0  0  0  0
   -0.9456   10.7344   26.9825 C   0  0  0  0  0  0  0  0  0  0  0  0
   -2.5934   11.4598   23.8052 N   0  0  0  0  0  0  0  0  0  0  0  0
    0.4042   12.0434   23.4765 N   0  0  0  0  0  0  0  0  0  0  0  0
    2.7758   12.6537   22.7703 C   0  0  0  0  0  0  0  0  0  0  0  0
    4.1333   12.1746   23.0919 C   0  0  0  0  0  0  0  0  0  0  0  0
    5.1292   13.1353   23.2881 C   0  0  0  0  0  0  0  0  0  0  0  0
    4.4172   10.8340   23.1905 C   0  0  0  0  0  0  0  0  0  0  0  0
    5.6961   10.4126   23.4866 C   0  0  0  0  0  0  0  0  0  0  0  0
    5.9984    9.0585   23.5898 O   0  0  0  0  0  0  0  0  0  0  0  0
    5.1766    8.1261   22.9605 C   0  0  0  0  0  0  0  0  0  0  0  0
    6.6852   11.3783   23.6812 C   0  0  0  0  0  0  0  0  0  0  0  0
    7.9632   10.9125   23.9782 O   0  0  0  0  0  0  0  0  0  0  0  0
    8.6528   10.0860   23.0602 C   0  0  0  0  0  0  0  0  0  0  0  0
    6.4071   12.7225   23.5836 C   0  0  0  0  0  0  0  0  0  0  0  0
    7.4065   13.6615   23.7812 O   0  0  0  0  0  0  0  0  0  0  0  0
    7.1258   15.0526   23.7088 C   0  0  0  0  0  0  0  0  0  0  0  0
  1  2  1  0
  1  6  2  0
 11  1  1  0
  2  3  2  0
 14  2  1  0
  3  5  1  0
  3 13  1  0
 11  4  1  0
  4 14  2  0
  4 15  1  0
 12  5  2  0
  6 12  1  0
  8  7  1  0
  9  8  1  0
 10  9  1  0
 10 11  1  0
 15 16  1  0
 16 17  2  0
 16 18  1  0
 17 25  1  0
 18 19  2  0
 19 20  1  0
 19 22  1  0
 20 21  1  0
 22 23  1  0
 22 25  2  0
 23 24  1  0
 25 26  1  0
 26 27  1  0
M  END
$$$$
