
     RDKit          3D

 24 27  0  0  0  0  0  0  0  0999 V2000
   91.3403   95.1082  -42.1746 N   0  0  0  0  0  0  0  0  0  0  0  0
   91.0055   96.3587  -42.5882 C   0  0  0  0  0  0  0  0  0  0  0  0
   90.9200   96.3713  -43.9652 C   0  0  0  0  0  0  0  0  0  0  0  0
   90.5925   97.5285  -44.6432 C   0  0  0  0  0  0  0  0  0  0  0  0
   90.3361   98.7188  -43.9930 C   0  0  0  0  0  0  0  0  0  0  0  0
   90.4229   98.7006  -42.6157 C   0  0  0  0  0  0  0  0  0  0  0  0
   90.7500   97.5461  -41.9344 C   0  0  0  0  0  0  0  0  0  0  0  0
   89.9837   99.9643  -44.7201 C   0  0  0  0  0  0  0  0  0  0  0  0
   91.4776   94.2959  -43.2488 C   0  0  0  0  0  0  0  0  0  0  0  0
   91.2171   95.0790  -44.3571 C   0  0  0  0  0  0  0  0  0  0  0  0
   91.2714   94.5536  -45.6297 C   0  0  0  0  0  0  0  0  0  0  0  0
   91.5940   93.2198  -45.7659 C   0  0  0  0  0  0  0  0  0  0  0  0
   91.8525   92.4447  -44.6576 C   0  0  0  0  0  0  0  0  0  0  0  0
   91.8005   92.9578  -43.3996 C   0  0  0  0  0  0  0  0  0  0  0  0
   91.5281   94.6842  -40.7927 C   0  0  0  0  0  0  0  0  0  0  0  0
   92.1908   91.0205  -44.9074 C   0  0  0  0  0  0  0  0  0  0  0  0
   91.9768   90.3115  -46.0608 C   0  0  0  0  0  0  0  0  0  0  0  0
   92.3660   89.0185  -46.0666 C   0  0  0  0  0  0  0  0  0  0  0  0
   92.9375   88.5354  -44.9220 C   0  0  0  0  0  0  0  0  0  0  0  0
   92.9184   89.8816  -43.8771 S   0  0  0  0  0  0  0  0  0  0  0  0
   92.2020   88.0893  -47.2646 C   0  0  0  0  0  0  0  0  0  0  0  0
   92.9962   94.8572  -40.4598 C   0  0  0  0  0  0  0  0  0  0  0  0
   91.1027  100.8645  -44.8444 N   0  0  0  0  0  4  0  0  0  0  0  0
   90.5934  102.0756  -45.4944 C   0  0  0  0  0  0  0  0  0  0  0  0
  1  2  1  0
  1  9  1  0
  1 15  1  0
  2  3  2  0
  2  7  1  0
  3  4  1  0
  3 10  1  0
  4  5  2  0
  5  6  1  0
  5  8  1  0
  6  7  2  0
  8 23  1  0
  9 10  2  0
  9 14  1  0
 10 11  1  0
 11 12  2  0
 12 13  1  0
 13 14  2  0
 13 16  1  0
 15 22  1  0
 16 17  2  0
 16 20  1  0
 17 18  1  0
 18 19  2  0
 18 21  1  0
 19 20  1  0
 23 24  1  0
M  CHG  1  23   1
M  END
$$$$
