
     RDKit          3D

 24 27  0  0  0  0  0  0  0  0999 V2000
   91.8818   93.9599  -42.9718 N   0  0  0  0  0  0  0  0  0  0  0  0
   91.7542   95.2591  -42.5941 C   0  0  0  0  0  0  0  0  0  0  0  0
   91.2438   95.9880  -43.6486 C   0  0  0  0  0  0  0  0  0  0  0  0
   91.0163   97.3443  -43.5267 C   0  0  0  0  0  0  0  0  0  0  0  0
   91.2819   98.0367  -42.3625 C   0  0  0  0  0  0  0  0  0  0  0  0
   91.7923   97.3029  -41.3109 C   0  0  0  0  0  0  0  0  0  0  0  0
   92.0211   95.9472  -41.4288 C   0  0  0  0  0  0  0  0  0  0  0  0
   91.0380   99.4951  -42.2292 C   0  0  0  0  0  0  0  0  0  0  0  0
   91.4667   93.8161  -44.2522 C   0  0  0  0  0  0  0  0  0  0  0  0
   91.0719   95.0726  -44.6703 C   0  0  0  0  0  0  0  0  0  0  0  0
   90.5891   95.2808  -45.9440 C   0  0  0  0  0  0  0  0  0  0  0  0
   90.5111   94.1961  -46.7919 C   0  0  0  0  0  0  0  0  0  0  0  0
   90.9061   92.9465  -46.3692 C   0  0  0  0  0  0  0  0  0  0  0  0
   91.3832   92.7352  -45.1137 C   0  0  0  0  0  0  0  0  0  0  0  0
   92.3855   92.8720  -42.1426 C   0  0  0  0  0  0  0  0  0  0  0  0
   90.7841   91.8426  -47.3550 C   0  0  0  0  0  0  0  0  0  0  0  0
   91.0931   90.5219  -47.1574 C   0  0  0  0  0  0  0  0  0  0  0  0
   90.9029   89.6852  -48.2001 C   0  0  0  0  0  0  0  0  0  0  0  0
   90.4198   90.2320  -49.3566 C   0  0  0  0  0  0  0  0  0  0  0  0
   90.2445   91.8816  -48.9660 S   0  0  0  0  0  0  0  0  0  0  0  0
   91.1952   88.1894  -48.1508 C   0  0  0  0  0  0  0  0  0  0  0  0
   91.1995   92.2627  -41.4227 C   0  0  0  0  0  0  0  0  0  0  0  0
   89.8163   99.7866  -41.5219 N   0  0  0  0  0  4  0  0  0  0  0  0
   89.7440  101.2454  -41.3979 C   0  0  0  0  0  0  0  0  0  0  0  0
  1  2  1  0
  1  9  1  0
  1 15  1  0
  2  3  2  0
  2  7  1  0
  3  4  1  0
  3 10  1  0
  4  5  2  0
  5  6  1  0
  5  8  1  0
  6  7  2  0
  8 23  1  0
  9 10  2  0
  9 14  1  0
 10 11  1  0
 11 12  2  0
 12 13  1  0
 13 14  2  0
 13 16  1  0
 15 22  1  0
 16 17  2  0
 16 20  1  0
 17 18  1  0
 18 19  2  0
 18 21  1  0
 19 20  1  0
 23 24  1  0
M  CHG  1  23   1
M  END
$$$$
