
     RDKit          3D

 24 27  0  0  0  0  0  0  0  0999 V2000
   91.6469   93.6391  -42.7041 N   0  0  0  0  0  0  0  0  0  0  0  0
   91.5854   94.9511  -42.3554 C   0  0  0  0  0  0  0  0  0  0  0  0
   91.2777   95.7013  -43.4717 C   0  0  0  0  0  0  0  0  0  0  0  0
   91.1547   97.0740  -43.3898 C   0  0  0  0  0  0  0  0  0  0  0  0
   91.3297   97.7625  -42.2063 C   0  0  0  0  0  0  0  0  0  0  0  0
   91.6374   97.0074  -41.0928 C   0  0  0  0  0  0  0  0  0  0  0  0
   91.7612   95.6352  -41.1705 C   0  0  0  0  0  0  0  0  0  0  0  0
   91.1980   99.2386  -42.1160 C   0  0  0  0  0  0  0  0  0  0  0  0
   91.3865   93.5076  -44.0260 C   0  0  0  0  0  0  0  0  0  0  0  0
   91.1580   94.7852  -44.5003 C   0  0  0  0  0  0  0  0  0  0  0  0
   90.8602   95.0103  -45.8267 C   0  0  0  0  0  0  0  0  0  0  0  0
   90.7967   93.9208  -46.6697 C   0  0  0  0  0  0  0  0  0  0  0  0
   91.0254   92.6502  -46.1909 C   0  0  0  0  0  0  0  0  0  0  0  0
   91.3196   92.4221  -44.8832 C   0  0  0  0  0  0  0  0  0  0  0  0
   91.9456   92.5277  -41.8095 C   0  0  0  0  0  0  0  0  0  0  0  0
   90.9341   91.5428  -47.1760 C   0  0  0  0  0  0  0  0  0  0  0  0
   91.0130   90.1991  -46.9169 C   0  0  0  0  0  0  0  0  0  0  0  0
   90.9034   89.3639  -47.9722 C   0  0  0  0  0  0  0  0  0  0  0  0
   90.7239   89.9348  -49.2017 C   0  0  0  0  0  0  0  0  0  0  0  0
   90.7124   91.6043  -48.8598 S   0  0  0  0  0  0  0  0  0  0  0  0
   90.9690   87.8444  -47.8609 C   0  0  0  0  0  0  0  0  0  0  0  0
   93.4534   92.4252  -41.6998 C   0  0  0  0  0  0  0  0  0  0  0  0
   89.8725   99.6502  -41.7267 N   0  0  0  0  0  4  0  0  0  0  0  0
   89.9161  101.1075  -41.5746 C   0  0  0  0  0  0  0  0  0  0  0  0
  1  2  1  0
  1  9  1  0
  1 15  1  0
  2  3  2  0
  2  7  1  0
  3  4  1  0
  3 10  1  0
  4  5  2  0
  5  6  1  0
  5  8  1  0
  6  7  2  0
  8 23  1  0
  9 10  2  0
  9 14  1  0
 10 11  1  0
 11 12  2  0
 12 13  1  0
 13 14  2  0
 13 16  1  0
 15 22  1  0
 16 17  2  0
 16 20  1  0
 17 18  1  0
 18 19  2  0
 18 21  1  0
 19 20  1  0
 23 24  1  0
M  CHG  1  23   1
M  END
$$$$
