
     RDKit          3D

 24 27  0  0  0  0  0  0  0  0999 V2000
   91.6447   93.6719  -43.0693 N   0  0  0  0  0  0  0  0  0  0  0  0
   91.6103   94.9718  -42.6744 C   0  0  0  0  0  0  0  0  0  0  0  0
   91.3220   95.7674  -43.7642 C   0  0  0  0  0  0  0  0  0  0  0  0
   91.2283   97.1386  -43.6340 C   0  0  0  0  0  0  0  0  0  0  0  0
   91.4145   97.7810  -42.4265 C   0  0  0  0  0  0  0  0  0  0  0  0
   91.7025   96.9805  -41.3397 C   0  0  0  0  0  0  0  0  0  0  0  0
   91.7971   95.6096  -41.4658 C   0  0  0  0  0  0  0  0  0  0  0  0
   91.3141   99.2554  -42.2843 C   0  0  0  0  0  0  0  0  0  0  0  0
   91.3854   93.5928  -44.3956 C   0  0  0  0  0  0  0  0  0  0  0  0
   91.1858   94.8910  -44.8249 C   0  0  0  0  0  0  0  0  0  0  0  0
   90.8969   95.1693  -46.1431 C   0  0  0  0  0  0  0  0  0  0  0  0
   90.8125   94.1119  -47.0243 C   0  0  0  0  0  0  0  0  0  0  0  0
   91.0125   92.8205  -46.5903 C   0  0  0  0  0  0  0  0  0  0  0  0
   91.2978   92.5400  -45.2908 C   0  0  0  0  0  0  0  0  0  0  0  0
   91.9167   92.5233  -42.2139 C   0  0  0  0  0  0  0  0  0  0  0  0
   90.9004   91.7508  -47.6142 C   0  0  0  0  0  0  0  0  0  0  0  0
   90.9346   90.3972  -47.4007 C   0  0  0  0  0  0  0  0  0  0  0  0
   90.8135   89.6024  -48.4856 C   0  0  0  0  0  0  0  0  0  0  0  0
   90.6680   90.2204  -49.6968 C   0  0  0  0  0  0  0  0  0  0  0  0
   90.7032   91.8768  -49.2974 S   0  0  0  0  0  0  0  0  0  0  0  0
   90.8308   88.0788  -48.4262 C   0  0  0  0  0  0  0  0  0  0  0  0
   93.4189   92.4352  -42.0357 C   0  0  0  0  0  0  0  0  0  0  0  0
   90.0668   99.6676  -41.6910 N   0  0  0  0  0  4  0  0  0  0  0  0
   90.1377  101.1241  -41.5406 C   0  0  0  0  0  0  0  0  0  0  0  0
  1  2  1  0
  1  9  1  0
  1 15  1  0
  2  3  2  0
  2  7  1  0
  3  4  1  0
  3 10  1  0
  4  5  2  0
  5  6  1  0
  5  8  1  0
  6  7  2  0
  8 23  1  0
  9 10  2  0
  9 14  1  0
 10 11  1  0
 11 12  2  0
 12 13  1  0
 13 14  2  0
 13 16  1  0
 15 22  1  0
 16 17  2  0
 16 20  1  0
 17 18  1  0
 18 19  2  0
 18 21  1  0
 19 20  1  0
 23 24  1  0
M  CHG  1  23   1
M  END
$$$$
