
     RDKit          3D

 24 27  0  0  0  0  0  0  0  0999 V2000
   92.0068   93.5950  -42.9062 N   0  0  0  0  0  0  0  0  0  0  0  0
   91.9180   94.8907  -42.5059 C   0  0  0  0  0  0  0  0  0  0  0  0
   91.5495   95.6717  -43.5819 C   0  0  0  0  0  0  0  0  0  0  0  0
   91.3883   97.0359  -43.4437 C   0  0  0  0  0  0  0  0  0  0  0  0
   91.5833   97.6852  -42.2413 C   0  0  0  0  0  0  0  0  0  0  0  0
   91.9517   96.8993  -41.1683 C   0  0  0  0  0  0  0  0  0  0  0  0
   92.1138   95.5355  -41.3024 C   0  0  0  0  0  0  0  0  0  0  0  0
   91.4105   99.1521  -42.0905 C   0  0  0  0  0  0  0  0  0  0  0  0
   91.7049   93.5046  -44.2228 C   0  0  0  0  0  0  0  0  0  0  0  0
   91.4219   94.7911  -44.6402 C   0  0  0  0  0  0  0  0  0  0  0  0
   91.0720   95.0558  -45.9464 C   0  0  0  0  0  0  0  0  0  0  0  0
   91.0121   93.9968  -46.8276 C   0  0  0  0  0  0  0  0  0  0  0  0
   91.2952   92.7171  -46.4055 C   0  0  0  0  0  0  0  0  0  0  0  0
   91.6411   92.4500  -45.1180 C   0  0  0  0  0  0  0  0  0  0  0  0
   92.3693   92.4611  -42.0651 C   0  0  0  0  0  0  0  0  0  0  0  0
   91.2033   91.6447  -47.4285 C   0  0  0  0  0  0  0  0  0  0  0  0
   90.6485   91.7416  -48.6782 C   0  0  0  0  0  0  0  0  0  0  0  0
   90.6744   90.6325  -49.4480 C   0  0  0  0  0  0  0  0  0  0  0  0
   91.2513   89.5152  -48.9106 C   0  0  0  0  0  0  0  0  0  0  0  0
   91.7383   90.0330  -47.3617 S   0  0  0  0  0  0  0  0  0  0  0  0
   90.1025   90.5674  -50.8601 C   0  0  0  0  0  0  0  0  0  0  0  0
   93.8785   92.3310  -42.1035 C   0  0  0  0  0  0  0  0  0  0  0  0
   90.0899   99.5068  -41.6343 N   0  0  0  0  0  4  0  0  0  0  0  0
   90.0714  100.9669  -41.5053 C   0  0  0  0  0  0  0  0  0  0  0  0
  1  2  1  0
  1  9  1  0
  1 15  1  0
  2  3  2  0
  2  7  1  0
  3  4  1  0
  3 10  1  0
  4  5  2  0
  5  6  1  0
  5  8  1  0
  6  7  2  0
  8 23  1  0
  9 10  2  0
  9 14  1  0
 10 11  1  0
 11 12  2  0
 12 13  1  0
 13 14  2  0
 13 16  1  0
 15 22  1  0
 16 17  2  0
 16 20  1  0
 17 18  1  0
 18 19  2  0
 18 21  1  0
 19 20  1  0
 23 24  1  0
M  CHG  1  23   1
M  END
$$$$
