
     RDKit          3D

 24 27  0  0  0  0  0  0  0  0999 V2000
   91.9439   94.0999  -42.9662 N   0  0  0  0  0  0  0  0  0  0  0  0
   91.6581   95.4003  -42.6939 C   0  0  0  0  0  0  0  0  0  0  0  0
   91.0676   95.9744  -43.8009 C   0  0  0  0  0  0  0  0  0  0  0  0
   90.6768   97.2984  -43.7877 C   0  0  0  0  0  0  0  0  0  0  0  0
   90.8515   98.1097  -42.6846 C   0  0  0  0  0  0  0  0  0  0  0  0
   91.4426   97.5305  -41.5801 C   0  0  0  0  0  0  0  0  0  0  0  0
   91.8346   96.2075  -41.5894 C   0  0  0  0  0  0  0  0  0  0  0  0
   90.4320   99.5338  -42.6682 C   0  0  0  0  0  0  0  0  0  0  0  0
   91.5548   93.8038  -44.2285 C   0  0  0  0  0  0  0  0  0  0  0  0
   91.0124   94.9653  -44.7445 C   0  0  0  0  0  0  0  0  0  0  0  0
   90.5134   95.0099  -46.0282 C   0  0  0  0  0  0  0  0  0  0  0  0
   90.5712   93.8588  -46.7853 C   0  0  0  0  0  0  0  0  0  0  0  0
   91.1129   92.7046  -46.2654 C   0  0  0  0  0  0  0  0  0  0  0  0
   91.6067   92.6547  -44.9996 C   0  0  0  0  0  0  0  0  0  0  0  0
   92.5722   93.1516  -42.0548 C   0  0  0  0  0  0  0  0  0  0  0  0
   91.1299   91.5180  -47.1581 C   0  0  0  0  0  0  0  0  0  0  0  0
   91.6293   90.2747  -46.8688 C   0  0  0  0  0  0  0  0  0  0  0  0
   91.5393   89.3376  -47.8369 C   0  0  0  0  0  0  0  0  0  0  0  0
   90.9585   89.7147  -49.0160 C   0  0  0  0  0  0  0  0  0  0  0  0
   90.5565   91.3491  -48.7490 S   0  0  0  0  0  0  0  0  0  0  0  0
   92.0442   87.9071  -47.6813 C   0  0  0  0  0  0  0  0  0  0  0  0
   91.4661   92.4686  -41.2762 C   0  0  0  0  0  0  0  0  0  0  0  0
   91.5119  100.4297  -42.9982 N   0  0  0  0  0  4  0  0  0  0  0  0
   90.9833  101.7897  -42.8579 C   0  0  0  0  0  0  0  0  0  0  0  0
  1  2  1  0
  1  9  1  0
  1 15  1  0
  2  3  2  0
  2  7  1  0
  3  4  1  0
  3 10  1  0
  4  5  2  0
  5  6  1  0
  5  8  1  0
  6  7  2  0
  8 23  1  0
  9 10  2  0
  9 14  1  0
 10 11  1  0
 11 12  2  0
 12 13  1  0
 13 14  2  0
 13 16  1  0
 15 22  1  0
 16 17  2  0
 16 20  1  0
 17 18  1  0
 18 19  2  0
 18 21  1  0
 19 20  1  0
 23 24  1  0
M  CHG  1  23   1
M  END
$$$$
