
     RDKit          3D

 24 27  0  0  0  0  0  0  0  0999 V2000
   91.9812   93.7766  -42.7829 N   0  0  0  0  0  0  0  0  0  0  0  0
   91.9070   95.0783  -42.3997 C   0  0  0  0  0  0  0  0  0  0  0  0
   91.5506   95.8495  -43.4869 C   0  0  0  0  0  0  0  0  0  0  0  0
   91.4054   97.2172  -43.3669 C   0  0  0  0  0  0  0  0  0  0  0  0
   91.6052   97.8799  -42.1726 C   0  0  0  0  0  0  0  0  0  0  0  0
   91.9614   97.1037  -41.0884 C   0  0  0  0  0  0  0  0  0  0  0  0
   92.1076   95.7364  -41.2042 C   0  0  0  0  0  0  0  0  0  0  0  0
   91.4496   99.3505  -42.0414 C   0  0  0  0  0  0  0  0  0  0  0  0
   91.6816   93.6725  -44.0989 C   0  0  0  0  0  0  0  0  0  0  0  0
   91.4152   94.9567  -44.5338 C   0  0  0  0  0  0  0  0  0  0  0  0
   91.0717   95.2084  -45.8443 C   0  0  0  0  0  0  0  0  0  0  0  0
   91.0013   94.1388  -46.7118 C   0  0  0  0  0  0  0  0  0  0  0  0
   91.2680   92.8615  -46.2723 C   0  0  0  0  0  0  0  0  0  0  0  0
   91.6074   92.6071  -44.9804 C   0  0  0  0  0  0  0  0  0  0  0  0
   92.3280   92.6495  -41.9260 C   0  0  0  0  0  0  0  0  0  0  0  0
   91.1658   91.7769  -47.2814 C   0  0  0  0  0  0  0  0  0  0  0  0
   91.3612   90.4360  -47.0745 C   0  0  0  0  0  0  0  0  0  0  0  0
   91.2155   89.6233  -48.1430 C   0  0  0  0  0  0  0  0  0  0  0  0
   90.8866   90.2122  -49.3326 C   0  0  0  0  0  0  0  0  0  0  0  0
   90.7897   91.8669  -48.9363 S   0  0  0  0  0  0  0  0  0  0  0  0
   91.3964   88.1102  -48.0879 C   0  0  0  0  0  0  0  0  0  0  0  0
   93.8394   92.5430  -41.9047 C   0  0  0  0  0  0  0  0  0  0  0  0
   90.1338   99.7267  -41.5885 N   0  0  0  0  0  4  0  0  0  0  0  0
   90.1506  101.1830  -41.4220 C   0  0  0  0  0  0  0  0  0  0  0  0
  1  2  1  0
  1  9  1  0
  1 15  1  0
  2  3  2  0
  2  7  1  0
  3  4  1  0
  3 10  1  0
  4  5  2  0
  5  6  1  0
  5  8  1  0
  6  7  2  0
  8 23  1  0
  9 10  2  0
  9 14  1  0
 10 11  1  0
 11 12  2  0
 12 13  1  0
 13 14  2  0
 13 16  1  0
 15 22  1  0
 16 17  2  0
 16 20  1  0
 17 18  1  0
 18 19  2  0
 18 21  1  0
 19 20  1  0
 23 24  1  0
M  CHG  1  23   1
M  END
$$$$
