
     RDKit          3D

 24 27  0  0  0  0  0  0  0  0999 V2000
   92.1867   94.4553  -42.4395 N   0  0  0  0  0  0  0  0  0  0  0  0
   91.8297   95.7660  -42.4001 C   0  0  0  0  0  0  0  0  0  0  0  0
   91.3260   96.1341  -43.6308 C   0  0  0  0  0  0  0  0  0  0  0  0
   90.8880   97.4233  -43.8591 C   0  0  0  0  0  0  0  0  0  0  0  0
   90.9285   98.4011  -42.8856 C   0  0  0  0  0  0  0  0  0  0  0  0
   91.4332   98.0276  -41.6565 C   0  0  0  0  0  0  0  0  0  0  0  0
   91.8719   96.7400  -41.4244 C   0  0  0  0  0  0  0  0  0  0  0  0
   90.4581   99.7881  -43.1290 C   0  0  0  0  0  0  0  0  0  0  0  0
   91.9294   93.9510  -43.6691 C   0  0  0  0  0  0  0  0  0  0  0  0
   91.3965   94.9914  -44.4060 C   0  0  0  0  0  0  0  0  0  0  0  0
   91.0196   94.8146  -45.7196 C   0  0  0  0  0  0  0  0  0  0  0  0
   91.1900   93.5659  -46.2792 C   0  0  0  0  0  0  0  0  0  0  0  0
   91.7217   92.5332  -45.5397 C   0  0  0  0  0  0  0  0  0  0  0  0
   92.0953   92.7019  -44.2433 C   0  0  0  0  0  0  0  0  0  0  0  0
   92.7600   93.6899  -41.3394 C   0  0  0  0  0  0  0  0  0  0  0  0
   91.8656   91.2268  -46.2308 C   0  0  0  0  0  0  0  0  0  0  0  0
   91.3864   90.8918  -47.4706 C   0  0  0  0  0  0  0  0  0  0  0  0
   91.6354   89.6380  -47.9057 C   0  0  0  0  0  0  0  0  0  0  0  0
   92.3423   88.8181  -47.0702 C   0  0  0  0  0  0  0  0  0  0  0  0
   92.6392   89.8050  -45.7129 S   0  0  0  0  0  0  0  0  0  0  0  0
   91.1753   89.1029  -49.2575 C   0  0  0  0  0  0  0  0  0  0  0  0
   91.6147   93.0253  -40.6028 C   0  0  0  0  0  0  0  0  0  0  0  0
   89.0908   99.9858  -42.7177 N   0  0  0  0  0  4  0  0  0  0  0  0
   88.7938  101.4061  -42.9261 C   0  0  0  0  0  0  0  0  0  0  0  0
  1  2  1  0
  1  9  1  0
  1 15  1  0
  2  3  2  0
  2  7  1  0
  3  4  1  0
  3 10  1  0
  4  5  2  0
  5  6  1  0
  5  8  1  0
  6  7  2  0
  8 23  1  0
  9 10  2  0
  9 14  1  0
 10 11  1  0
 11 12  2  0
 12 13  1  0
 13 14  2  0
 13 16  1  0
 15 22  1  0
 16 17  2  0
 16 20  1  0
 17 18  1  0
 18 19  2  0
 18 21  1  0
 19 20  1  0
 23 24  1  0
M  CHG  1  23   1
M  END
$$$$
