
     RDKit          3D

 24 27  0  0  0  0  0  0  0  0999 V2000
   92.0903   93.8886  -42.9811 N   0  0  0  0  0  0  0  0  0  0  0  0
   91.8447   95.1533  -42.5487 C   0  0  0  0  0  0  0  0  0  0  0  0
   91.2183   95.8608  -43.5541 C   0  0  0  0  0  0  0  0  0  0  0  0
   90.8569   97.1806  -43.3711 C   0  0  0  0  0  0  0  0  0  0  0  0
   91.0975   97.8562  -42.1917 C   0  0  0  0  0  0  0  0  0  0  0  0
   91.7243   97.1439  -41.1893 C   0  0  0  0  0  0  0  0  0  0  0  0
   92.0871   95.8246  -41.3684 C   0  0  0  0  0  0  0  0  0  0  0  0
   90.7097   99.2754  -41.9927 C   0  0  0  0  0  0  0  0  0  0  0  0
   91.6396   93.7465  -44.2496 C   0  0  0  0  0  0  0  0  0  0  0  0
   91.0998   94.9684  -44.6034 C   0  0  0  0  0  0  0  0  0  0  0  0
   90.5457   95.1688  -45.8490 C   0  0  0  0  0  0  0  0  0  0  0  0
   90.5453   94.1120  -46.7348 C   0  0  0  0  0  0  0  0  0  0  0  0
   91.0847   92.8970  -46.3763 C   0  0  0  0  0  0  0  0  0  0  0  0
   91.6328   92.6933  -45.1487 C   0  0  0  0  0  0  0  0  0  0  0  0
   92.7379   92.8314  -42.2144 C   0  0  0  0  0  0  0  0  0  0  0  0
   91.0368   91.8212  -47.3988 C   0  0  0  0  0  0  0  0  0  0  0  0
   90.3084   91.8183  -48.5601 C   0  0  0  0  0  0  0  0  0  0  0  0
   90.4162   90.7273  -49.3484 C   0  0  0  0  0  0  0  0  0  0  0  0
   91.2415   89.7263  -48.9163 C   0  0  0  0  0  0  0  0  0  0  0  0
   91.8405   90.3244  -47.4371 S   0  0  0  0  0  0  0  0  0  0  0  0
   89.6764   90.5612  -50.6714 C   0  0  0  0  0  0  0  0  0  0  0  0
   91.6447   91.9861  -41.5928 C   0  0  0  0  0  0  0  0  0  0  0  0
   91.8507  100.1382  -41.8148 N   0  0  0  0  0  4  0  0  0  0  0  0
   91.3587  101.5128  -41.9461 C   0  0  0  0  0  0  0  0  0  0  0  0
  1  2  1  0
  1  9  1  0
  1 15  1  0
  2  3  2  0
  2  7  1  0
  3  4  1  0
  3 10  1  0
  4  5  2  0
  5  6  1  0
  5  8  1  0
  6  7  2  0
  8 23  1  0
  9 10  2  0
  9 14  1  0
 10 11  1  0
 11 12  2  0
 12 13  1  0
 13 14  2  0
 13 16  1  0
 15 22  1  0
 16 17  2  0
 16 20  1  0
 17 18  1  0
 18 19  2  0
 18 21  1  0
 19 20  1  0
 23 24  1  0
M  CHG  1  23   1
M  END
$$$$
