
     RDKit          3D

 24 27  0  0  0  0  0  0  0  0999 V2000
   91.9149   94.0931  -42.9072 N   0  0  0  0  0  0  0  0  0  0  0  0
   91.6456   95.3760  -42.5489 C   0  0  0  0  0  0  0  0  0  0  0  0
   91.0276   96.0188  -43.6017 C   0  0  0  0  0  0  0  0  0  0  0  0
   90.6460   97.3415  -43.4973 C   0  0  0  0  0  0  0  0  0  0  0  0
   90.8575   98.0837  -42.3528 C   0  0  0  0  0  0  0  0  0  0  0  0
   91.4759   97.4359  -41.3028 C   0  0  0  0  0  0  0  0  0  0  0  0
   91.8588   96.1140  -41.4032 C   0  0  0  0  0  0  0  0  0  0  0  0
   90.4479   99.5062  -42.2384 C   0  0  0  0  0  0  0  0  0  0  0  0
   91.4881   93.8758  -44.1734 C   0  0  0  0  0  0  0  0  0  0  0  0
   90.9388   95.0690  -44.6025 C   0  0  0  0  0  0  0  0  0  0  0  0
   90.4037   95.1935  -45.8662 C   0  0  0  0  0  0  0  0  0  0  0  0
   90.4323   94.0901  -46.6927 C   0  0  0  0  0  0  0  0  0  0  0  0
   90.9810   92.9040  -46.2592 C   0  0  0  0  0  0  0  0  0  0  0  0
   91.5104   92.7752  -45.0135 C   0  0  0  0  0  0  0  0  0  0  0  0
   92.5627   93.0883  -42.0732 C   0  0  0  0  0  0  0  0  0  0  0  0
   90.9647   91.7735  -47.2220 C   0  0  0  0  0  0  0  0  0  0  0  0
   90.3586   91.7450  -48.4512 C   0  0  0  0  0  0  0  0  0  0  0  0
   90.4722   90.6040  -49.1643 C   0  0  0  0  0  0  0  0  0  0  0  0
   91.1810   89.5824  -48.5951 C   0  0  0  0  0  0  0  0  0  0  0  0
   91.6664   90.2308  -47.0957 S   0  0  0  0  0  0  0  0  0  0  0  0
   89.8602   90.4039  -50.5465 C   0  0  0  0  0  0  0  0  0  0  0  0
   91.4739   92.3569  -41.3146 C   0  0  0  0  0  0  0  0  0  0  0  0
   91.1072  100.1830  -41.1497 N   0  0  0  0  0  4  0  0  0  0  0  0
   90.6467  101.5743  -41.1835 C   0  0  0  0  0  0  0  0  0  0  0  0
  1  2  1  0
  1  9  1  0
  1 15  1  0
  2  3  2  0
  2  7  1  0
  3  4  1  0
  3 10  1  0
  4  5  2  0
  5  6  1  0
  5  8  1  0
  6  7  2  0
  8 23  1  0
  9 10  2  0
  9 14  1  0
 10 11  1  0
 11 12  2  0
 12 13  1  0
 13 14  2  0
 13 16  1  0
 15 22  1  0
 16 17  2  0
 16 20  1  0
 17 18  1  0
 18 19  2  0
 18 21  1  0
 19 20  1  0
 23 24  1  0
M  CHG  1  23   1
M  END
$$$$
