
     RDKit          3D

 24 27  0  0  0  0  0  0  0  0999 V2000
   91.7489   93.8719  -42.4205 N   0  0  0  0  0  0  0  0  0  0  0  0
   91.5709   95.1725  -42.0691 C   0  0  0  0  0  0  0  0  0  0  0  0
   91.0829   95.8710  -43.1543 C   0  0  0  0  0  0  0  0  0  0  0  0
   90.8136   97.2220  -43.0632 C   0  0  0  0  0  0  0  0  0  0  0  0
   91.0139   97.9389  -41.9007 C   0  0  0  0  0  0  0  0  0  0  0  0
   91.5021   97.2355  -40.8183 C   0  0  0  0  0  0  0  0  0  0  0  0
   91.7725   95.8851  -40.9054 C   0  0  0  0  0  0  0  0  0  0  0  0
   90.7250   99.3918  -41.8006 C   0  0  0  0  0  0  0  0  0  0  0  0
   91.3889   93.6973  -43.7138 C   0  0  0  0  0  0  0  0  0  0  0  0
   90.9767   94.9359  -44.1672 C   0  0  0  0  0  0  0  0  0  0  0  0
   90.5392   95.1114  -45.4619 C   0  0  0  0  0  0  0  0  0  0  0  0
   90.5245   94.0124  -46.2947 C   0  0  0  0  0  0  0  0  0  0  0  0
   90.9366   92.7809  -45.8369 C   0  0  0  0  0  0  0  0  0  0  0  0
   91.3692   92.6017  -44.5604 C   0  0  0  0  0  0  0  0  0  0  0  0
   92.2490   92.8110  -41.5549 C   0  0  0  0  0  0  0  0  0  0  0  0
   90.8839   91.6593  -46.8088 C   0  0  0  0  0  0  0  0  0  0  0  0
   90.1684   91.6125  -47.9770 C   0  0  0  0  0  0  0  0  0  0  0  0
   90.2686   90.4845  -48.7124 C   0  0  0  0  0  0  0  0  0  0  0  0
   91.0742   89.4930  -48.2246 C   0  0  0  0  0  0  0  0  0  0  0  0
   91.6658   90.1510  -46.7680 S   0  0  0  0  0  0  0  0  0  0  0  0
   89.5410   90.2673  -50.0348 C   0  0  0  0  0  0  0  0  0  0  0  0
   93.7617   92.8991  -41.5558 C   0  0  0  0  0  0  0  0  0  0  0  0
   91.8454  100.2048  -42.2026 N   0  0  0  0  0  4  0  0  0  0  0  0
   91.4414  101.5997  -42.0027 C   0  0  0  0  0  0  0  0  0  0  0  0
  1  2  1  0
  1  9  1  0
  1 15  1  0
  2  3  2  0
  2  7  1  0
  3  4  1  0
  3 10  1  0
  4  5  2  0
  5  6  1  0
  5  8  1  0
  6  7  2  0
  8 23  1  0
  9 10  2  0
  9 14  1  0
 10 11  1  0
 11 12  2  0
 12 13  1  0
 13 14  2  0
 13 16  1  0
 15 22  1  0
 16 17  2  0
 16 20  1  0
 17 18  1  0
 18 19  2  0
 18 21  1  0
 19 20  1  0
 23 24  1  0
M  CHG  1  23   1
M  END
$$$$
