
     RDKit          3D

 24 27  0  0  0  0  0  0  0  0999 V2000
   91.9044   94.0354  -42.6956 N   0  0  0  0  0  0  0  0  0  0  0  0
   91.7167   95.3393  -42.3617 C   0  0  0  0  0  0  0  0  0  0  0  0
   91.3388   96.0437  -43.4863 C   0  0  0  0  0  0  0  0  0  0  0  0
   91.0842   97.3990  -43.4199 C   0  0  0  0  0  0  0  0  0  0  0  0
   91.1915   98.1145  -42.2444 C   0  0  0  0  0  0  0  0  0  0  0  0
   91.5698   97.4052  -41.1226 C   0  0  0  0  0  0  0  0  0  0  0  0
   91.8251   96.0505  -41.1848 C   0  0  0  0  0  0  0  0  0  0  0  0
   90.9182   99.5720  -42.1707 C   0  0  0  0  0  0  0  0  0  0  0  0
   91.6586   93.8645  -44.0158 C   0  0  0  0  0  0  0  0  0  0  0  0
   91.3084   95.1087  -44.5044 C   0  0  0  0  0  0  0  0  0  0  0  0
   90.9911   95.2891  -45.8331 C   0  0  0  0  0  0  0  0  0  0  0  0
   91.0331   94.1891  -46.6636 C   0  0  0  0  0  0  0  0  0  0  0  0
   91.3829   92.9519  -46.1706 C   0  0  0  0  0  0  0  0  0  0  0  0
   91.6969   92.7680  -44.8606 C   0  0  0  0  0  0  0  0  0  0  0  0
   92.3082   92.9681  -41.7886 C   0  0  0  0  0  0  0  0  0  0  0  0
   91.3992   91.8297  -47.1431 C   0  0  0  0  0  0  0  0  0  0  0  0
   90.8191   91.8053  -48.3848 C   0  0  0  0  0  0  0  0  0  0  0  0
   90.9602   90.6718  -49.1050 C   0  0  0  0  0  0  0  0  0  0  0  0
   91.6683   89.6531  -48.5299 C   0  0  0  0  0  0  0  0  0  0  0  0
   92.1152   90.2938  -47.0153 S   0  0  0  0  0  0  0  0  0  0  0  0
   90.3793   90.4771  -50.5014 C   0  0  0  0  0  0  0  0  0  0  0  0
   93.8228   92.9239  -41.7846 C   0  0  0  0  0  0  0  0  0  0  0  0
   89.6223   99.8615  -41.6096 N   0  0  0  0  0  4  0  0  0  0  0  0
   89.5160  101.3217  -41.5371 C   0  0  0  0  0  0  0  0  0  0  0  0
  1  2  1  0
  1  9  1  0
  1 15  1  0
  2  3  2  0
  2  7  1  0
  3  4  1  0
  3 10  1  0
  4  5  2  0
  5  6  1  0
  5  8  1  0
  6  7  2  0
  8 23  1  0
  9 10  2  0
  9 14  1  0
 10 11  1  0
 11 12  2  0
 12 13  1  0
 13 14  2  0
 13 16  1  0
 15 22  1  0
 16 17  2  0
 16 20  1  0
 17 18  1  0
 18 19  2  0
 18 21  1  0
 19 20  1  0
 23 24  1  0
M  CHG  1  23   1
M  END
$$$$
