
     RDKit          3D

 24 27  0  0  0  0  0  0  0  0999 V2000
   92.3035   94.0603  -42.7937 N   0  0  0  0  0  0  0  0  0  0  0  0
   92.0920   95.3470  -42.4108 C   0  0  0  0  0  0  0  0  0  0  0  0
   91.5208   96.0415  -43.4572 C   0  0  0  0  0  0  0  0  0  0  0  0
   91.2027   97.3788  -43.3288 C   0  0  0  0  0  0  0  0  0  0  0  0
   91.4342   98.0853  -42.1658 C   0  0  0  0  0  0  0  0  0  0  0  0
   92.0057   97.3859  -41.1223 C   0  0  0  0  0  0  0  0  0  0  0  0
   92.3251   96.0492  -41.2467 C   0  0  0  0  0  0  0  0  0  0  0  0
   91.0929   99.5234  -42.0256 C   0  0  0  0  0  0  0  0  0  0  0  0
   91.8842   93.8911  -44.0696 C   0  0  0  0  0  0  0  0  0  0  0  0
   91.3997   95.1185  -44.4795 C   0  0  0  0  0  0  0  0  0  0  0  0
   90.8889   95.2959  -45.7469 C   0  0  0  0  0  0  0  0  0  0  0  0
   90.8751   94.2102  -46.5969 C   0  0  0  0  0  0  0  0  0  0  0  0
   91.3593   92.9897  -46.1825 C   0  0  0  0  0  0  0  0  0  0  0  0
   91.8645   92.8087  -44.9332 C   0  0  0  0  0  0  0  0  0  0  0  0
   92.8900   93.0076  -41.9735 C   0  0  0  0  0  0  0  0  0  0  0  0
   91.3013   91.8820  -47.1699 C   0  0  0  0  0  0  0  0  0  0  0  0
   90.5385   91.8297  -48.3075 C   0  0  0  0  0  0  0  0  0  0  0  0
   90.6434   90.7170  -49.0652 C   0  0  0  0  0  0  0  0  0  0  0  0
   91.5004   89.7450  -48.6283 C   0  0  0  0  0  0  0  0  0  0  0  0
   92.1321   90.3996  -47.1872 S   0  0  0  0  0  0  0  0  0  0  0  0
   89.8673   90.4964  -50.3593 C   0  0  0  0  0  0  0  0  0  0  0  0
   91.7619   92.3467  -41.2075 C   0  0  0  0  0  0  0  0  0  0  0  0
   89.7095   99.7295  -41.6769 N   0  0  0  0  0  4  0  0  0  0  0  0
   89.5253  101.1772  -41.5392 C   0  0  0  0  0  0  0  0  0  0  0  0
  1  2  1  0
  1  9  1  0
  1 15  1  0
  2  3  2  0
  2  7  1  0
  3  4  1  0
  3 10  1  0
  4  5  2  0
  5  6  1  0
  5  8  1  0
  6  7  2  0
  8 23  1  0
  9 10  2  0
  9 14  1  0
 10 11  1  0
 11 12  2  0
 12 13  1  0
 13 14  2  0
 13 16  1  0
 15 22  1  0
 16 17  2  0
 16 20  1  0
 17 18  1  0
 18 19  2  0
 18 21  1  0
 19 20  1  0
 23 24  1  0
M  CHG  1  23   1
M  END
$$$$
