
     RDKit          3D

 24 27  0  0  0  0  0  0  0  0999 V2000
   92.2464   94.0718  -43.0309 N   0  0  0  0  0  0  0  0  0  0  0  0
   92.0147   95.3343  -42.5846 C   0  0  0  0  0  0  0  0  0  0  0  0
   91.4050   96.0625  -43.5855 C   0  0  0  0  0  0  0  0  0  0  0  0
   91.0600   97.3847  -43.3886 C   0  0  0  0  0  0  0  0  0  0  0  0
   91.3012   98.0425  -42.1993 C   0  0  0  0  0  0  0  0  0  0  0  0
   91.9112   97.3096  -41.2016 C   0  0  0  0  0  0  0  0  0  0  0  0
   92.2576   95.9878  -41.3944 C   0  0  0  0  0  0  0  0  0  0  0  0
   90.9310   99.4643  -41.9855 C   0  0  0  0  0  0  0  0  0  0  0  0
   91.8029   93.9515  -44.3042 C   0  0  0  0  0  0  0  0  0  0  0  0
   91.2821   95.1848  -44.6466 C   0  0  0  0  0  0  0  0  0  0  0  0
   90.7395   95.4080  -45.8934 C   0  0  0  0  0  0  0  0  0  0  0  0
   90.7312   94.3623  -46.7923 C   0  0  0  0  0  0  0  0  0  0  0  0
   91.2518   93.1357  -46.4450 C   0  0  0  0  0  0  0  0  0  0  0  0
   91.7883   92.9096  -45.2163 C   0  0  0  0  0  0  0  0  0  0  0  0
   92.8742   92.9967  -42.2729 C   0  0  0  0  0  0  0  0  0  0  0  0
   91.1967   92.0733  -47.4812 C   0  0  0  0  0  0  0  0  0  0  0  0
   91.5692   90.7619  -47.3391 C   0  0  0  0  0  0  0  0  0  0  0  0
   91.4333   89.9655  -48.4210 C   0  0  0  0  0  0  0  0  0  0  0  0
   90.9370   90.5400  -49.5584 C   0  0  0  0  0  0  0  0  0  0  0  0
   90.6747   92.1592  -49.0961 S   0  0  0  0  0  0  0  0  0  0  0  0
   91.7996   88.4853  -48.4352 C   0  0  0  0  0  0  0  0  0  0  0  0
   91.7671   92.1965  -41.6171 C   0  0  0  0  0  0  0  0  0  0  0  0
   92.0761  100.3398  -42.0021 N   0  0  0  0  0  4  0  0  0  0  0  0
   91.5634  101.7005  -41.8168 C   0  0  0  0  0  0  0  0  0  0  0  0
  1  2  1  0
  1  9  1  0
  1 15  1  0
  2  3  2  0
  2  7  1  0
  3  4  1  0
  3 10  1  0
  4  5  2  0
  5  6  1  0
  5  8  1  0
  6  7  2  0
  8 23  1  0
  9 10  2  0
  9 14  1  0
 10 11  1  0
 11 12  2  0
 12 13  1  0
 13 14  2  0
 13 16  1  0
 15 22  1  0
 16 17  2  0
 16 20  1  0
 17 18  1  0
 18 19  2  0
 18 21  1  0
 19 20  1  0
 23 24  1  0
M  CHG  1  23   1
M  END
$$$$
