
     RDKit          3D

 24 27  0  0  0  0  0  0  0  0999 V2000
   91.9166   93.8927  -43.0125 N   0  0  0  0  0  0  0  0  0  0  0  0
   91.7065   95.1737  -42.6106 C   0  0  0  0  0  0  0  0  0  0  0  0
   91.1036   95.8752  -43.6344 C   0  0  0  0  0  0  0  0  0  0  0  0
   90.7800   97.2089  -43.4835 C   0  0  0  0  0  0  0  0  0  0  0  0
   91.0368   97.9047  -42.3194 C   0  0  0  0  0  0  0  0  0  0  0  0
   91.6399   97.1984  -41.2985 C   0  0  0  0  0  0  0  0  0  0  0  0
   91.9649   95.8653  -41.4454 C   0  0  0  0  0  0  0  0  0  0  0  0
   90.6897   99.3389  -42.1550 C   0  0  0  0  0  0  0  0  0  0  0  0
   91.4655   93.7340  -44.2789 C   0  0  0  0  0  0  0  0  0  0  0  0
   90.9623   94.9623  -44.6630 C   0  0  0  0  0  0  0  0  0  0  0  0
   90.4177   95.1494  -45.9148 C   0  0  0  0  0  0  0  0  0  0  0  0
   90.3891   94.0726  -46.7757 C   0  0  0  0  0  0  0  0  0  0  0  0
   90.8921   92.8512  -46.3870 C   0  0  0  0  0  0  0  0  0  0  0  0
   91.4307   92.6607  -45.1532 C   0  0  0  0  0  0  0  0  0  0  0  0
   92.5311   92.8355  -42.2190 C   0  0  0  0  0  0  0  0  0  0  0  0
   90.8159   91.7536  -47.3844 C   0  0  0  0  0  0  0  0  0  0  0  0
   91.2333   90.4584  -47.2196 C   0  0  0  0  0  0  0  0  0  0  0  0
   91.0663   89.6227  -48.2670 C   0  0  0  0  0  0  0  0  0  0  0  0
   90.4967   90.1449  -49.3952 C   0  0  0  0  0  0  0  0  0  0  0  0
   90.2108   91.7709  -48.9723 S   0  0  0  0  0  0  0  0  0  0  0  0
   91.4745   88.1535  -48.2526 C   0  0  0  0  0  0  0  0  0  0  0  0
   91.4162   92.0902  -41.5137 C   0  0  0  0  0  0  0  0  0  0  0  0
   91.8383  100.1506  -41.8392 N   0  0  0  0  0  4  0  0  0  0  0  0
   91.3587  101.5325  -41.7436 C   0  0  0  0  0  0  0  0  0  0  0  0
  1  2  1  0
  1  9  1  0
  1 15  1  0
  2  3  2  0
  2  7  1  0
  3  4  1  0
  3 10  1  0
  4  5  2  0
  5  6  1  0
  5  8  1  0
  6  7  2  0
  8 23  1  0
  9 10  2  0
  9 14  1  0
 10 11  1  0
 11 12  2  0
 12 13  1  0
 13 14  2  0
 13 16  1  0
 15 22  1  0
 16 17  2  0
 16 20  1  0
 17 18  1  0
 18 19  2  0
 18 21  1  0
 19 20  1  0
 23 24  1  0
M  CHG  1  23   1
M  END
$$$$
