
     RDKit          3D

 24 27  0  0  0  0  0  0  0  0999 V2000
   92.0976   94.3076  -42.9174 N   0  0  0  0  0  0  0  0  0  0  0  0
   91.8591   95.6273  -42.6975 C   0  0  0  0  0  0  0  0  0  0  0  0
   91.3475   96.1917  -43.8479 C   0  0  0  0  0  0  0  0  0  0  0  0
   91.0172   97.5314  -43.8922 C   0  0  0  0  0  0  0  0  0  0  0  0
   91.1773   98.3686  -42.8065 C   0  0  0  0  0  0  0  0  0  0  0  0
   91.6894   97.7990  -41.6584 C   0  0  0  0  0  0  0  0  0  0  0  0
   92.0207   96.4603  -41.6100 C   0  0  0  0  0  0  0  0  0  0  0  0
   90.8229   99.8096  -42.8520 C   0  0  0  0  0  0  0  0  0  0  0  0
   91.7545   93.9893  -44.1876 C   0  0  0  0  0  0  0  0  0  0  0  0
   91.2902   95.1567  -44.7629 C   0  0  0  0  0  0  0  0  0  0  0  0
   90.8539   95.1828  -46.0697 C   0  0  0  0  0  0  0  0  0  0  0  0
   90.8942   94.0070  -46.7890 C   0  0  0  0  0  0  0  0  0  0  0  0
   91.3580   92.8470  -46.2100 C   0  0  0  0  0  0  0  0  0  0  0  0
   91.7897   92.8153  -44.9211 C   0  0  0  0  0  0  0  0  0  0  0  0
   92.6390   93.3617  -41.9494 C   0  0  0  0  0  0  0  0  0  0  0  0
   91.3623   91.6332  -47.0656 C   0  0  0  0  0  0  0  0  0  0  0  0
   90.7153   91.4648  -48.2622 C   0  0  0  0  0  0  0  0  0  0  0  0
   90.8586   90.2693  -48.8735 C   0  0  0  0  0  0  0  0  0  0  0  0
   91.6355   89.3371  -48.2431 C   0  0  0  0  0  0  0  0  0  0  0  0
   92.1417   90.1418  -46.8287 S   0  0  0  0  0  0  0  0  0  0  0  0
   90.2085   89.9158  -50.2068 C   0  0  0  0  0  0  0  0  0  0  0  0
   91.4677   92.7483  -41.2094 C   0  0  0  0  0  0  0  0  0  0  0  0
   89.5093  100.0705  -42.3187 N   0  0  0  0  0  4  0  0  0  0  0  0
   89.3091  101.5207  -42.3942 C   0  0  0  0  0  0  0  0  0  0  0  0
  1  2  1  0
  1  9  1  0
  1 15  1  0
  2  3  2  0
  2  7  1  0
  3  4  1  0
  3 10  1  0
  4  5  2  0
  5  6  1  0
  5  8  1  0
  6  7  2  0
  8 23  1  0
  9 10  2  0
  9 14  1  0
 10 11  1  0
 11 12  2  0
 12 13  1  0
 13 14  2  0
 13 16  1  0
 15 22  1  0
 16 17  2  0
 16 20  1  0
 17 18  1  0
 18 19  2  0
 18 21  1  0
 19 20  1  0
 23 24  1  0
M  CHG  1  23   1
M  END
$$$$
