
     RDKit          3D

 24 27  0  0  0  0  0  0  0  0999 V2000
   92.1050   93.5743  -42.6942 N   0  0  0  0  0  0  0  0  0  0  0  0
   91.9348   94.8407  -42.2316 C   0  0  0  0  0  0  0  0  0  0  0  0
   91.4328   95.6287  -43.2469 C   0  0  0  0  0  0  0  0  0  0  0  0
   91.1677   96.9675  -43.0382 C   0  0  0  0  0  0  0  0  0  0  0  0
   91.3860   97.5835  -41.8224 C   0  0  0  0  0  0  0  0  0  0  0  0
   91.8882   96.7908  -40.8103 C   0  0  0  0  0  0  0  0  0  0  0  0
   92.1544   95.4523  -41.0149 C   0  0  0  0  0  0  0  0  0  0  0  0
   91.1016   99.0230  -41.5958 C   0  0  0  0  0  0  0  0  0  0  0  0
   91.7263   93.5098  -43.9922 C   0  0  0  0  0  0  0  0  0  0  0  0
   91.3102   94.7826  -44.3334 C   0  0  0  0  0  0  0  0  0  0  0  0
   90.8547   95.0672  -45.6024 C   0  0  0  0  0  0  0  0  0  0  0  0
   90.8259   94.0424  -46.5246 C   0  0  0  0  0  0  0  0  0  0  0  0
   91.2418   92.7763  -46.1784 C   0  0  0  0  0  0  0  0  0  0  0  0
   91.6923   92.4897  -44.9280 C   0  0  0  0  0  0  0  0  0  0  0  0
   92.6152   92.4437  -41.9285 C   0  0  0  0  0  0  0  0  0  0  0  0
   91.1730   91.7409  -47.2407 C   0  0  0  0  0  0  0  0  0  0  0  0
   90.7867   91.9197  -48.5436 C   0  0  0  0  0  0  0  0  0  0  0  0
   90.7998   90.8306  -49.3418 C   0  0  0  0  0  0  0  0  0  0  0  0
   91.1971   89.6501  -48.7773 C   0  0  0  0  0  0  0  0  0  0  0  0
   91.5389   90.0830  -47.1648 S   0  0  0  0  0  0  0  0  0  0  0  0
   90.4008   90.8534  -50.8134 C   0  0  0  0  0  0  0  0  0  0  0  0
   94.1281   92.4957  -41.9947 C   0  0  0  0  0  0  0  0  0  0  0  0
   92.2981   99.8269  -41.5941 N   0  0  0  0  0  4  0  0  0  0  0  0
   91.8671  101.2158  -41.4100 C   0  0  0  0  0  0  0  0  0  0  0  0
  1  2  1  0
  1  9  1  0
  1 15  1  0
  2  3  2  0
  2  7  1  0
  3  4  1  0
  3 10  1  0
  4  5  2  0
  5  6  1  0
  5  8  1  0
  6  7  2  0
  8 23  1  0
  9 10  2  0
  9 14  1  0
 10 11  1  0
 11 12  2  0
 12 13  1  0
 13 14  2  0
 13 16  1  0
 15 22  1  0
 16 17  2  0
 16 20  1  0
 17 18  1  0
 18 19  2  0
 18 21  1  0
 19 20  1  0
 23 24  1  0
M  CHG  1  23   1
M  END
$$$$
