
     RDKit          3D

 26 29  0  0  0  0  0  0  0  0999 V2000
   12.1719   23.6228   21.1225 C   0  0  0  0  0  0  0  0  0  0  0  0
    6.9527   22.3156   19.2363 C   0  0  2  0  0  0  0  0  0  0  0  0
    5.8931   23.3850   19.5047 C   0  0  0  0  0  0  0  0  0  0  0  0
    6.3288   20.9775   18.9746 C   0  0  0  0  0  0  0  0  0  0  0  0
    5.0762   23.3978   18.2004 C   0  0  0  0  0  0  0  0  0  0  0  0
    5.0336   20.9835   18.2838 C   0  0  0  0  0  0  0  0  0  0  0  0
    4.2974   22.1847   18.2280 N   0  0  2  0  0  4  0  0  0  0  0  0
    9.0430   21.9009   22.3186 C   0  0  0  0  0  0  0  0  0  0  0  0
    9.9240   22.5767   21.5234 C   0  0  0  0  0  0  0  0  0  0  0  0
    7.7585   21.6966   21.6319 C   0  0  2  0  0  0  0  0  0  0  0  0
    7.9161   22.2726   20.3333 N   0  0  0  0  0  0  0  0  0  0  0  0
    9.2276   22.8145   20.2789 C   0  0  0  0  0  0  0  0  0  0  0  0
   11.7401   24.5153   20.1186 N   0  0  0  0  0  0  0  0  0  0  0  0
    9.4759   21.5323   23.6039 C   0  0  0  0  0  0  0  0  0  0  0  0
    6.7207   22.4789   22.4533 C   0  0  0  0  0  0  0  0  0  0  0  0
   11.6061   22.5227   23.2232 C   0  0  0  0  0  0  0  0  0  0  0  0
   10.7391   21.8455   24.0339 C   0  0  0  0  0  0  0  0  0  0  0  0
    1.9372   22.2573   17.7243 C   0  0  0  0  0  0  0  0  0  0  0  0
    2.9402   24.3379   15.9710 C   0  0  0  0  0  0  0  0  0  0  0  0
    1.0185   23.1298   16.9290 C   0  0  0  0  0  0  0  0  0  0  0  0
    1.6837   24.4673   16.7472 C   0  0  0  0  0  0  0  0  0  0  0  0
    3.6151   23.0273   16.0149 C   0  0  0  0  0  0  0  0  0  0  0  0
    3.3139   22.1340   17.1444 C   0  0  1  0  0  0  0  0  0  0  0  0
    9.6792   23.4178   19.2502 O   0  0  0  0  0  0  0  0  0  0  0  0
   11.2085   22.9065   21.9338 C   0  0  0  0  0  0  0  0  0  0  0  0
   13.3897   23.4802   21.2780 O   0  0  0  0  0  0  0  0  0  0  0  0
  1 13  1  0
 25  1  1  0
  1 26  2  0
  3  2  1  0
  4  2  1  0
  2 11  1  1
  5  3  1  0
  6  4  1  0
  7  5  1  6
  7  6  1  0
 23  7  1  0
  9  8  2  0
 10  8  1  0
  8 14  1  0
 12  9  1  0
  9 25  1  0
 11 10  1  0
 10 15  1  1
 11 12  1  0
 12 24  2  0
 14 17  2  0
 16 17  1  0
 25 16  2  0
 20 18  1  0
 23 18  1  1
 21 19  1  0
 19 22  1  0
 20 21  1  0
 22 23  1  0
M  CHG  1   7   1
M  END
$$$$
