
     RDKit          3D

 26 29  0  0  0  0  0  0  0  0999 V2000
   12.4515   23.9816   20.9648 C   0  0  0  0  0  0  0  0  0  0  0  0
    7.1818   22.8351   19.1148 C   0  0  2  0  0  0  0  0  0  0  0  0
    6.2623   24.0382   19.3284 C   0  0  0  0  0  0  0  0  0  0  0  0
    6.3983   21.5675   18.9489 C   0  0  0  0  0  0  0  0  0  0  0  0
    5.4247   24.0671   18.0375 C   0  0  0  0  0  0  0  0  0  0  0  0
    5.0983   21.6851   18.2774 C   0  0  0  0  0  0  0  0  0  0  0  0
    4.5084   22.9599   18.1544 N   0  0  2  0  0  4  0  0  0  0  0  0
    9.2983   22.3047   22.1612 C   0  0  0  0  0  0  0  0  0  0  0  0
   10.1851   22.9780   21.3703 C   0  0  0  0  0  0  0  0  0  0  0  0
    8.0014   22.1449   21.4861 C   0  0  2  0  0  0  0  0  0  0  0  0
    8.1568   22.7460   20.1986 N   0  0  0  0  0  0  0  0  0  0  0  0
    9.4797   23.2591   20.1399 C   0  0  0  0  0  0  0  0  0  0  0  0
   12.0448   24.6852   19.8113 N   0  0  0  0  0  0  0  0  0  0  0  0
    9.7378   21.8979   23.4327 C   0  0  0  0  0  0  0  0  0  0  0  0
    6.9916   22.9320   22.3372 C   0  0  0  0  0  0  0  0  0  0  0  0
   11.8854   22.8481   23.0476 C   0  0  0  0  0  0  0  0  0  0  0  0
   11.0128   22.1728   23.8538 C   0  0  0  0  0  0  0  0  0  0  0  0
    2.8697   21.6029   17.0132 C   0  0  0  0  0  0  0  0  0  0  0  0
    1.2582   23.8899   17.7761 C   0  0  0  0  0  0  0  0  0  0  0  0
    1.3902   21.6341   16.7942 C   0  0  0  0  0  0  0  0  0  0  0  0
    0.7758   22.4909   17.8679 C   0  0  0  0  0  0  0  0  0  0  0  0
    2.5724   24.0981   17.1399 C   0  0  0  0  0  0  0  0  0  0  0  0
    3.5026   22.9595   17.0903 C   0  0  1  0  0  0  0  0  0  0  0  0
    9.9328   23.8748   19.1193 O   0  0  0  0  0  0  0  0  0  0  0  0
   11.4815   23.2694   21.7719 C   0  0  0  0  0  0  0  0  0  0  0  0
   13.6532   23.9985   21.2530 O   0  0  0  0  0  0  0  0  0  0  0  0
  1 13  1  0
 25  1  1  0
  1 26  2  0
  3  2  1  0
  4  2  1  0
  2 11  1  1
  5  3  1  0
  6  4  1  0
  7  5  1  6
  7  6  1  0
 23  7  1  0
  9  8  2  0
 10  8  1  0
  8 14  1  0
 12  9  1  0
  9 25  1  0
 11 10  1  0
 10 15  1  1
 11 12  1  0
 12 24  2  0
 14 17  2  0
 16 17  1  0
 25 16  2  0
 20 18  1  0
 23 18  1  1
 21 19  1  0
 19 22  1  0
 20 21  1  0
 22 23  1  0
M  CHG  1   7   1
M  END
$$$$
