
     RDKit          3D

 26 29  0  0  0  0  0  0  0  0999 V2000
   12.2148   23.7050   21.3745 C   0  0  0  0  0  0  0  0  0  0  0  0
    6.6993   23.1205   20.0539 C   0  0  2  0  0  0  0  0  0  0  0  0
    5.5950   23.9227   20.7435 C   0  0  0  0  0  0  0  0  0  0  0  0
    6.1583   21.8748   19.4183 C   0  0  0  0  0  0  0  0  0  0  0  0
    4.6377   24.2594   19.5863 C   0  0  0  0  0  0  0  0  0  0  0  0
    4.7972   21.9558   18.8750 C   0  0  0  0  0  0  0  0  0  0  0  0
    3.9660   23.0216   19.2767 N   0  0  2  0  0  4  0  0  0  0  0  0
    9.0994   22.0876   22.7397 C   0  0  0  0  0  0  0  0  0  0  0  0
    9.9396   22.7987   21.9313 C   0  0  0  0  0  0  0  0  0  0  0  0
    7.7265   22.0922   22.2123 C   0  0  2  0  0  0  0  0  0  0  0  0
    7.7807   22.8381   20.9942 N   0  0  0  0  0  0  0  0  0  0  0  0
    9.1233   23.2730   20.8363 C   0  0  0  0  0  0  0  0  0  0  0  0
   11.7624   24.3586   20.2087 N   0  0  0  0  0  0  0  0  0  0  0  0
    9.6475   21.4998   23.8929 C   0  0  0  0  0  0  0  0  0  0  0  0
    6.8809   22.8274   23.2649 C   0  0  0  0  0  0  0  0  0  0  0  0
   11.8034   22.3580   23.3643 C   0  0  0  0  0  0  0  0  0  0  0  0
   10.9788   21.6420   24.1859 C   0  0  0  0  0  0  0  0  0  0  0  0
    3.4500   23.4351   16.9546 C   0  0  0  0  0  0  0  0  0  0  0  0
    1.8600   21.0632   17.4597 C   0  0  0  0  0  0  0  0  0  0  0  0
    2.7126   22.7315   15.8597 C   0  0  0  0  0  0  0  0  0  0  0  0
    2.6335   21.2706   16.2120 C   0  0  0  0  0  0  0  0  0  0  0  0
    1.8144   22.1924   18.4074 C   0  0  0  0  0  0  0  0  0  0  0  0
    2.8737   23.2094   18.3198 C   0  0  1  0  0  0  0  0  0  0  0  0
    9.5036   23.9821   19.8470 O   0  0  0  0  0  0  0  0  0  0  0  0
   11.2912   22.9584   22.2045 C   0  0  0  0  0  0  0  0  0  0  0  0
   13.4155   23.7954   21.6533 O   0  0  0  0  0  0  0  0  0  0  0  0
  1 13  1  0
 25  1  1  0
  1 26  2  0
  3  2  1  0
  4  2  1  0
  2 11  1  1
  5  3  1  0
  6  4  1  0
  7  5  1  6
  7  6  1  0
 23  7  1  0
  9  8  2  0
 10  8  1  0
  8 14  1  0
 12  9  1  0
  9 25  1  0
 11 10  1  0
 10 15  1  1
 11 12  1  0
 12 24  2  0
 14 17  2  0
 16 17  1  0
 25 16  2  0
 20 18  1  0
 23 18  1  6
 21 19  1  0
 19 22  1  0
 20 21  1  0
 22 23  1  0
M  CHG  1   7   1
M  END
$$$$
