
     RDKit          3D

 26 29  0  0  0  0  0  0  0  0999 V2000
   12.4958   23.6253   21.1130 C   0  0  0  0  0  0  0  0  0  0  0  0
    7.2125   22.9591   19.0760 C   0  0  2  0  0  0  0  0  0  0  0  0
    5.9296   23.6098   19.5950 C   0  0  0  0  0  0  0  0  0  0  0  0
    6.9215   21.6984   18.3183 C   0  0  0  0  0  0  0  0  0  0  0  0
    5.1449   23.9052   18.3043 C   0  0  0  0  0  0  0  0  0  0  0  0
    5.6675   21.6681   17.5560 C   0  0  0  0  0  0  0  0  0  0  0  0
    4.6712   22.6228   17.8459 N   0  0  2  0  0  4  0  0  0  0  0  0
    9.2022   22.1116   22.1361 C   0  0  0  0  0  0  0  0  0  0  0  0
   10.1551   22.7635   21.4064 C   0  0  0  0  0  0  0  0  0  0  0  0
    7.9166   22.0818   21.4224 C   0  0  2  0  0  0  0  0  0  0  0  0
    8.1487   22.7411   20.1756 N   0  0  0  0  0  0  0  0  0  0  0  0
    9.5051   23.1618   20.1779 C   0  0  0  0  0  0  0  0  0  0  0  0
   12.1620   24.5394   20.0913 N   0  0  0  0  0  0  0  0  0  0  0  0
    9.5772   21.6046   23.3922 C   0  0  0  0  0  0  0  0  0  0  0  0
    6.9406   22.8897   22.2933 C   0  0  0  0  0  0  0  0  0  0  0  0
   11.7954   22.4205   23.1132 C   0  0  0  0  0  0  0  0  0  0  0  0
   10.8561   21.7647   23.8584 C   0  0  0  0  0  0  0  0  0  0  0  0
    2.8780   21.5199   16.6639 C   0  0  0  0  0  0  0  0  0  0  0  0
    1.6618   24.0886   17.2400 C   0  0  0  0  0  0  0  0  0  0  0  0
    1.4408   21.7992   16.3567 C   0  0  0  0  0  0  0  0  0  0  0  0
    0.9343   22.8021   17.3578 C   0  0  0  0  0  0  0  0  0  0  0  0
    3.0229   24.0317   16.6749 C   0  0  0  0  0  0  0  0  0  0  0  0
    3.7372   22.7466   16.7250 C   0  0  1  0  0  0  0  0  0  0  0  0
   10.0278   23.7998   19.2054 O   0  0  0  0  0  0  0  0  0  0  0  0
   11.4570   22.9397   21.8547 C   0  0  0  0  0  0  0  0  0  0  0  0
   13.6952   23.4372   21.3448 O   0  0  0  0  0  0  0  0  0  0  0  0
  1 13  1  0
 25  1  1  0
  1 26  2  0
  3  2  1  0
  4  2  1  0
  2 11  1  1
  5  3  1  0
  6  4  1  0
  7  5  1  6
  7  6  1  0
 23  7  1  0
  9  8  2  0
 10  8  1  0
  8 14  1  0
 12  9  1  0
  9 25  1  0
 11 10  1  0
 10 15  1  1
 11 12  1  0
 12 24  2  0
 14 17  2  0
 16 17  1  0
 25 16  2  0
 20 18  1  0
 23 18  1  1
 21 19  1  0
 19 22  1  0
 20 21  1  0
 22 23  1  0
M  CHG  1   7   1
M  END
$$$$
