
     RDKit          3D

 26 29  0  0  0  0  0  0  0  0999 V2000
   12.1208   24.0340   20.8910 C   0  0  0  0  0  0  0  0  0  0  0  0
    6.7818   22.4305   19.6950 C   0  0  2  0  0  0  0  0  0  0  0  0
    5.9306   23.6956   19.8113 C   0  0  0  0  0  0  0  0  0  0  0  0
    5.9458   21.1923   19.8225 C   0  0  0  0  0  0  0  0  0  0  0  0
    4.9500   23.5626   18.6325 C   0  0  0  0  0  0  0  0  0  0  0  0
    4.5809   21.2665   19.2877 C   0  0  0  0  0  0  0  0  0  0  0  0
    4.0201   22.5335   19.0262 N   0  0  2  0  0  4  0  0  0  0  0  0
    9.2508   22.2048   22.5046 C   0  0  0  0  0  0  0  0  0  0  0  0
    9.9935   22.8970   21.5910 C   0  0  0  0  0  0  0  0  0  0  0  0
    7.9039   21.9209   21.9868 C   0  0  2  0  0  0  0  0  0  0  0  0
    7.8728   22.4649   20.6653 N   0  0  0  0  0  0  0  0  0  0  0  0
    9.1393   23.0652   20.4366 C   0  0  0  0  0  0  0  0  0  0  0  0
   11.5282   24.9068   19.9541 N   0  0  0  0  0  0  0  0  0  0  0  0
    9.8552   21.8950   23.7351 C   0  0  0  0  0  0  0  0  0  0  0  0
    6.9366   22.6781   22.9112 C   0  0  0  0  0  0  0  0  0  0  0  0
   11.8711   22.9715   23.0710 C   0  0  0  0  0  0  0  0  0  0  0  0
   11.1443   22.2790   23.9983 C   0  0  0  0  0  0  0  0  0  0  0  0
    2.3847   23.7852   17.7661 C   0  0  0  0  0  0  0  0  0  0  0  0
    3.5753   22.1691   15.6734 C   0  0  0  0  0  0  0  0  0  0  0  0
    2.0295   23.9734   16.3252 C   0  0  0  0  0  0  0  0  0  0  0  0
    3.2274   23.5992   15.4949 C   0  0  0  0  0  0  0  0  0  0  0  0
    3.1619   21.5390   16.9412 C   0  0  0  0  0  0  0  0  0  0  0  0
    2.8980   22.4154   18.0929 C   0  0  1  0  0  0  0  0  0  0  0  0
    9.4314   23.6581   19.3461 O   0  0  0  0  0  0  0  0  0  0  0  0
   11.3004   23.2981   21.8318 C   0  0  0  0  0  0  0  0  0  0  0  0
   13.3519   23.9255   20.8752 O   0  0  0  0  0  0  0  0  0  0  0  0
  1 13  1  0
 25  1  1  0
  1 26  2  0
  3  2  1  0
  4  2  1  0
  2 11  1  1
  5  3  1  0
  6  4  1  0
  7  5  1  6
  7  6  1  0
 23  7  1  0
  9  8  2  0
 10  8  1  0
  8 14  1  0
 12  9  1  0
  9 25  1  0
 11 10  1  0
 10 15  1  1
 11 12  1  0
 12 24  2  0
 14 17  2  0
 16 17  1  0
 25 16  2  0
 20 18  1  0
 23 18  1  6
 21 19  1  0
 19 22  1  0
 20 21  1  0
 22 23  1  0
M  CHG  1   7   1
M  END
$$$$
