
     RDKit          3D

 26 29  0  0  0  0  0  0  0  0999 V2000
   12.6204   24.0209   21.0926 C   0  0  0  0  0  0  0  0  0  0  0  0
    7.3723   23.0614   19.0819 C   0  0  2  0  0  0  0  0  0  0  0  0
    6.3513   24.1485   19.4199 C   0  0  0  0  0  0  0  0  0  0  0  0
    6.7008   21.7708   18.7190 C   0  0  0  0  0  0  0  0  0  0  0  0
    5.5484   24.2872   18.1141 C   0  0  0  0  0  0  0  0  0  0  0  0
    5.4137   21.8767   18.0213 C   0  0  0  0  0  0  0  0  0  0  0  0
    4.7240   23.1062   18.0479 N   0  0  2  0  0  4  0  0  0  0  0  0
    9.4143   22.3455   22.1412 C   0  0  0  0  0  0  0  0  0  0  0  0
   10.3291   23.0401   21.4024 C   0  0  0  0  0  0  0  0  0  0  0  0
    8.1295   22.2422   21.4328 C   0  0  2  0  0  0  0  0  0  0  0  0
    8.3224   22.9021   20.1797 N   0  0  0  0  0  0  0  0  0  0  0  0
    9.6548   23.3933   20.1731 C   0  0  0  0  0  0  0  0  0  0  0  0
   12.2337   24.9485   20.1023 N   0  0  0  0  0  0  0  0  0  0  0  0
    9.8197   21.8696   23.4000 C   0  0  0  0  0  0  0  0  0  0  0  0
    7.1155   23.0053   22.3007 C   0  0  0  0  0  0  0  0  0  0  0  0
   11.9910   22.7982   23.1056 C   0  0  0  0  0  0  0  0  0  0  0  0
   11.0900   22.1004   23.8599 C   0  0  0  0  0  0  0  0  0  0  0  0
    3.6326   21.8196   16.3208 C   0  0  0  0  0  0  0  0  0  0  0  0
    1.3443   22.9576   17.6910 C   0  0  0  0  0  0  0  0  0  0  0  0
    2.2307   21.4319   15.9715 C   0  0  0  0  0  0  0  0  0  0  0  0
    1.3878   21.5552   17.2120 C   0  0  0  0  0  0  0  0  0  0  0  0
    2.4808   23.8210   17.3197 C   0  0  0  0  0  0  0  0  0  0  0  0
    3.7501   23.1720   16.9564 C   0  0  1  0  0  0  0  0  0  0  0  0
   10.1400   24.0495   19.1933 O   0  0  0  0  0  0  0  0  0  0  0  0
   11.6215   23.2881   21.8441 C   0  0  0  0  0  0  0  0  0  0  0  0
   13.8304   23.8624   21.2889 O   0  0  0  0  0  0  0  0  0  0  0  0
  1 13  1  0
 25  1  1  0
  1 26  2  0
  3  2  1  0
  4  2  1  0
  2 11  1  1
  5  3  1  0
  6  4  1  0
  7  5  1  6
  7  6  1  0
 23  7  1  0
  9  8  2  0
 10  8  1  0
  8 14  1  0
 12  9  1  0
  9 25  1  0
 11 10  1  0
 10 15  1  1
 11 12  1  0
 12 24  2  0
 14 17  2  0
 16 17  1  0
 25 16  2  0
 20 18  1  0
 23 18  1  1
 21 19  1  0
 19 22  1  0
 20 21  1  0
 22 23  1  0
M  CHG  1   7   1
M  END
$$$$
