
     RDKit          3D

 26 29  0  0  0  0  0  0  0  0999 V2000
   12.2107   23.8280   21.0308 C   0  0  0  0  0  0  0  0  0  0  0  0
    6.7492   23.0091   19.6138 C   0  0  2  0  0  0  0  0  0  0  0  0
    5.6430   23.9006   20.1797 C   0  0  0  0  0  0  0  0  0  0  0  0
    6.2035   21.7023   19.1211 C   0  0  0  0  0  0  0  0  0  0  0  0
    4.7124   24.1066   18.9712 C   0  0  0  0  0  0  0  0  0  0  0  0
    4.8541   21.7327   18.5443 C   0  0  0  0  0  0  0  0  0  0  0  0
    4.0300   22.8482   18.7984 N   0  0  2  0  0  4  0  0  0  0  0  0
    9.0920   22.2546   22.4393 C   0  0  0  0  0  0  0  0  0  0  0  0
    9.9400   22.9170   21.5982 C   0  0  0  0  0  0  0  0  0  0  0  0
    7.7351   22.1842   21.8762 C   0  0  2  0  0  0  0  0  0  0  0  0
    7.8087   22.8296   20.6030 N   0  0  0  0  0  0  0  0  0  0  0  0
    9.1458   23.2814   20.4463 C   0  0  0  0  0  0  0  0  0  0  0  0
   11.7471   24.5410   19.9049 N   0  0  0  0  0  0  0  0  0  0  0  0
    9.6188   21.7756   23.6511 C   0  0  0  0  0  0  0  0  0  0  0  0
    6.8441   22.9826   22.8417 C   0  0  0  0  0  0  0  0  0  0  0  0
   11.7704   22.6381   23.1125 C   0  0  0  0  0  0  0  0  0  0  0  0
   10.9378   21.9723   23.9675 C   0  0  0  0  0  0  0  0  0  0  0  0
    3.3771   22.1946   16.5678 C   0  0  0  0  0  0  0  0  0  0  0  0
    1.1171   21.2322   18.1089 C   0  0  0  0  0  0  0  0  0  0  0  0
    2.2854   21.3835   15.9450 C   0  0  0  0  0  0  0  0  0  0  0  0
    1.7269   20.4639   16.9971 C   0  0  0  0  0  0  0  0  0  0  0  0
    1.6241   22.6000   18.3264 C   0  0  0  0  0  0  0  0  0  0  0  0
    2.9586   22.9320   17.8038 C   0  0  1  0  0  0  0  0  0  0  0  0
    9.5395   23.9164   19.4129 O   0  0  0  0  0  0  0  0  0  0  0  0
   11.2794   23.1301   21.8939 C   0  0  0  0  0  0  0  0  0  0  0  0
   13.4278   23.8244   21.2461 O   0  0  0  0  0  0  0  0  0  0  0  0
  1 13  1  0
 25  1  1  0
  1 26  2  0
  3  2  1  0
  4  2  1  0
  2 11  1  1
  5  3  1  0
  6  4  1  0
  7  5  1  6
  7  6  1  0
 23  7  1  0
  9  8  2  0
 10  8  1  0
  8 14  1  0
 12  9  1  0
  9 25  1  0
 11 10  1  0
 10 15  1  1
 11 12  1  0
 12 24  2  0
 14 17  2  0
 16 17  1  0
 25 16  2  0
 20 18  1  0
 23 18  1  6
 21 19  1  0
 19 22  1  0
 20 21  1  0
 22 23  1  0
M  CHG  1   7   1
M  END
$$$$
