
     RDKit          3D

 26 29  0  0  0  0  0  0  0  0999 V2000
   12.2028   23.9295   21.1199 C   0  0  0  0  0  0  0  0  0  0  0  0
    6.6969   22.9673   19.9950 C   0  0  2  0  0  0  0  0  0  0  0  0
    5.5869   23.7989   20.6390 C   0  0  0  0  0  0  0  0  0  0  0  0
    6.1794   21.6501   19.4995 C   0  0  0  0  0  0  0  0  0  0  0  0
    4.5862   23.9928   19.4858 C   0  0  0  0  0  0  0  0  0  0  0  0
    4.8013   21.6370   18.9943 C   0  0  0  0  0  0  0  0  0  0  0  0
    3.9472   22.7112   19.3179 N   0  0  2  0  0  4  0  0  0  0  0  0
    9.2109   22.2576   22.6816 C   0  0  0  0  0  0  0  0  0  0  0  0
    9.9928   22.9502   21.8017 C   0  0  0  0  0  0  0  0  0  0  0  0
    7.8277   22.1532   22.1927 C   0  0  2  0  0  0  0  0  0  0  0  0
    7.8135   22.8102   20.9233 N   0  0  0  0  0  0  0  0  0  0  0  0
    9.1269   23.3009   20.6982 C   0  0  0  0  0  0  0  0  0  0  0  0
   11.6697   24.5611   19.9763 N   0  0  0  0  0  0  0  0  0  0  0  0
    9.8163   21.7844   23.8584 C   0  0  0  0  0  0  0  0  0  0  0  0
    6.9689   22.9186   23.2126 C   0  0  0  0  0  0  0  0  0  0  0  0
   11.9104   22.7116   23.2114 C   0  0  0  0  0  0  0  0  0  0  0  0
   11.1447   22.0159   24.1043 C   0  0  0  0  0  0  0  0  0  0  0  0
    3.3493   22.9632   16.9924 C   0  0  0  0  0  0  0  0  0  0  0  0
    1.9408   20.5187   17.6629 C   0  0  0  0  0  0  0  0  0  0  0  0
    2.6373   22.1531   15.9558 C   0  0  0  0  0  0  0  0  0  0  0  0
    2.6684   20.7112   16.3855 C   0  0  0  0  0  0  0  0  0  0  0  0
    1.8388   21.6913   18.5515 C   0  0  0  0  0  0  0  0  0  0  0  0
    2.8223   22.7722   18.3825 C   0  0  1  0  0  0  0  0  0  0  0  0
    9.4456   23.9547   19.6508 O   0  0  0  0  0  0  0  0  0  0  0  0
   11.3400   23.1988   22.0260 C   0  0  0  0  0  0  0  0  0  0  0  0
   13.4199   24.0249   21.3128 O   0  0  0  0  0  0  0  0  0  0  0  0
  1 13  1  0
 25  1  1  0
  1 26  2  0
  3  2  1  0
  4  2  1  0
  2 11  1  1
  5  3  1  0
  6  4  1  0
  7  5  1  6
  7  6  1  0
 23  7  1  0
  9  8  2  0
 10  8  1  0
  8 14  1  0
 12  9  1  0
  9 25  1  0
 11 10  1  0
 10 15  1  1
 11 12  1  0
 12 24  2  0
 14 17  2  0
 16 17  1  0
 25 16  2  0
 20 18  1  0
 23 18  1  6
 21 19  1  0
 19 22  1  0
 20 21  1  0
 22 23  1  0
M  CHG  1   7   1
M  END
$$$$
