
     RDKit          3D

 26 29  0  0  0  0  0  0  0  0999 V2000
   11.9536   23.9417   20.9673 C   0  0  0  0  0  0  0  0  0  0  0  0
    6.4678   23.1646   19.6221 C   0  0  2  0  0  0  0  0  0  0  0  0
    5.2593   23.5206   20.4888 C   0  0  0  0  0  0  0  0  0  0  0  0
    6.1285   22.1081   18.6136 C   0  0  0  0  0  0  0  0  0  0  0  0
    4.2376   24.0400   19.4616 C   0  0  0  0  0  0  0  0  0  0  0  0
    4.7626   22.1311   18.0766 C   0  0  0  0  0  0  0  0  0  0  0  0
    3.7743   22.8681   18.7608 N   0  0  2  0  0  4  0  0  0  0  0  0
    9.0315   21.7953   21.9873 C   0  0  0  0  0  0  0  0  0  0  0  0
    9.7822   22.7365   21.3424 C   0  0  0  0  0  0  0  0  0  0  0  0
    7.6469   21.7908   21.4912 C   0  0  2  0  0  0  0  0  0  0  0  0
    7.5988   22.7839   20.4642 N   0  0  0  0  0  0  0  0  0  0  0  0
    8.8940   23.3610   20.3876 C   0  0  0  0  0  0  0  0  0  0  0  0
   11.3774   25.0987   20.4014 N   0  0  0  0  0  0  0  0  0  0  0  0
    9.6639   21.0240   22.9775 C   0  0  0  0  0  0  0  0  0  0  0  0
    6.7762   22.2026   22.6895 C   0  0  0  0  0  0  0  0  0  0  0  0
   11.7214   22.1655   22.6209 C   0  0  0  0  0  0  0  0  0  0  0  0
   10.9871   21.2182   23.2774 C   0  0  0  0  0  0  0  0  0  0  0  0
    3.0778   24.1755   16.8543 C   0  0  0  0  0  0  0  0  0  0  0  0
    2.3387   21.5069   15.9935 C   0  0  0  0  0  0  0  0  0  0  0  0
    2.5658   23.9048   15.4751 C   0  0  0  0  0  0  0  0  0  0  0  0
    2.9651   22.5050   15.0937 C   0  0  0  0  0  0  0  0  0  0  0  0
    1.9688   21.9708   17.3437 C   0  0  0  0  0  0  0  0  0  0  0  0
    2.6479   23.1637   17.8731 C   0  0  1  0  0  0  0  0  0  0  0  0
    9.1811   24.2981   19.5718 O   0  0  0  0  0  0  0  0  0  0  0  0
   11.1235   22.9539   21.6265 C   0  0  0  0  0  0  0  0  0  0  0  0
   13.1791   23.8088   20.8778 O   0  0  0  0  0  0  0  0  0  0  0  0
  1 13  1  0
 25  1  1  0
  1 26  2  0
  3  2  1  0
  4  2  1  0
  2 11  1  1
  5  3  1  0
  6  4  1  0
  7  5  1  6
  7  6  1  0
 23  7  1  0
  9  8  2  0
 10  8  1  0
  8 14  1  0
 12  9  1  0
  9 25  1  0
 11 10  1  0
 10 15  1  1
 11 12  1  0
 12 24  2  0
 14 17  2  0
 16 17  1  0
 25 16  2  0
 20 18  1  0
 23 18  1  6
 21 19  1  0
 19 22  1  0
 20 21  1  0
 22 23  1  0
M  CHG  1   7   1
M  END
$$$$
