
     RDKit          3D

 26 29  0  0  0  0  0  0  0  0999 V2000
   12.4412   23.7435   21.2666 C   0  0  0  0  0  0  0  0  0  0  0  0
    7.0399   23.1304   19.5471 C   0  0  2  0  0  0  0  0  0  0  0  0
    6.3342   24.4587   19.8230 C   0  0  0  0  0  0  0  0  0  0  0  0
    6.0588   22.0042   19.4145 C   0  0  0  0  0  0  0  0  0  0  0  0
    5.4424   24.6411   18.5819 C   0  0  0  0  0  0  0  0  0  0  0  0
    4.7589   22.3358   18.8187 C   0  0  0  0  0  0  0  0  0  0  0  0
    4.3711   23.6892   18.7406 N   0  0  2  0  0  4  0  0  0  0  0  0
    9.2273   22.1624   22.4315 C   0  0  0  0  0  0  0  0  0  0  0  0
   10.1281   22.8527   21.6717 C   0  0  0  0  0  0  0  0  0  0  0  0
    7.8982   22.1550   21.8017 C   0  0  2  0  0  0  0  0  0  0  0  0
    8.0463   22.8705   20.5732 N   0  0  0  0  0  0  0  0  0  0  0  0
    9.3981   23.3004   20.5067 C   0  0  0  0  0  0  0  0  0  0  0  0
   13.7934   23.3407   21.2705 N   0  0  0  0  0  0  0  0  0  0  0  0
    9.6850   21.6030   23.6369 C   0  0  0  0  0  0  0  0  0  0  0  0
    6.9773   22.9165   22.7689 C   0  0  0  0  0  0  0  0  0  0  0  0
   11.8769   22.4463   23.2521 C   0  0  0  0  0  0  0  0  0  0  0  0
   10.9907   21.7514   24.0263 C   0  0  0  0  0  0  0  0  0  0  0  0
    3.7560   23.2209   16.4534 C   0  0  0  0  0  0  0  0  0  0  0  0
    1.4536   22.1720   17.8702 C   0  0  0  0  0  0  0  0  0  0  0  0
    2.6675   22.4759   15.7478 C   0  0  0  0  0  0  0  0  0  0  0  0
    2.0765   21.4846   16.7136 C   0  0  0  0  0  0  0  0  0  0  0  0
    1.9725   23.5115   18.2040 C   0  0  0  0  0  0  0  0  0  0  0  0
    3.3214   23.8651   17.7351 C   0  0  1  0  0  0  0  0  0  0  0  0
    9.8539   23.9846   19.5319 O   0  0  0  0  0  0  0  0  0  0  0  0
   11.4555   23.0183   22.0424 C   0  0  0  0  0  0  0  0  0  0  0  0
   12.1378   24.7274   20.5828 O   0  0  0  0  0  0  0  0  0  0  0  0
  1 13  1  0
 25  1  1  0
  1 26  2  0
  3  2  1  0
  4  2  1  0
  2 11  1  1
  5  3  1  0
  6  4  1  0
  7  5  1  6
  7  6  1  0
 23  7  1  0
  9  8  2  0
 10  8  1  0
  8 14  1  0
 12  9  1  0
  9 25  1  0
 11 10  1  0
 10 15  1  1
 11 12  1  0
 12 24  2  0
 14 17  2  0
 16 17  1  0
 25 16  2  0
 20 18  1  0
 23 18  1  6
 21 19  1  0
 19 22  1  0
 20 21  1  0
 22 23  1  0
M  CHG  1   7   1
M  END
$$$$
