
     RDKit          3D

 26 29  0  0  0  0  0  0  0  0999 V2000
   12.4287   23.8505   21.0252 C   0  0  0  0  0  0  0  0  0  0  0  0
    6.9570   22.8843   19.7471 C   0  0  2  0  0  0  0  0  0  0  0  0
    5.9707   23.9365   20.2557 C   0  0  0  0  0  0  0  0  0  0  0  0
    6.2675   21.5893   19.4373 C   0  0  0  0  0  0  0  0  0  0  0  0
    4.9945   24.0944   19.0763 C   0  0  0  0  0  0  0  0  0  0  0  0
    4.8954   21.6851   18.9248 C   0  0  0  0  0  0  0  0  0  0  0  0
    4.1920   22.8966   19.0845 N   0  0  2  0  0  4  0  0  0  0  0  0
    9.4073   22.1374   22.4820 C   0  0  0  0  0  0  0  0  0  0  0  0
   10.2073   22.8492   21.6344 C   0  0  0  0  0  0  0  0  0  0  0  0
    8.0372   22.0356   21.9572 C   0  0  2  0  0  0  0  0  0  0  0  0
    8.0511   22.7153   20.6999 N   0  0  0  0  0  0  0  0  0  0  0  0
    9.3673   23.2159   20.5163 C   0  0  0  0  0  0  0  0  0  0  0  0
   11.9005   24.6584   19.9961 N   0  0  0  0  0  0  0  0  0  0  0  0
    9.9858   21.6457   23.6649 C   0  0  0  0  0  0  0  0  0  0  0  0
    7.1497   22.7787   22.9691 C   0  0  0  0  0  0  0  0  0  0  0  0
   12.0907   22.5937   23.0867 C   0  0  0  0  0  0  0  0  0  0  0  0
   11.3065   21.8786   23.9477 C   0  0  0  0  0  0  0  0  0  0  0  0
    3.6154   23.2367   16.7648 C   0  0  0  0  0  0  0  0  0  0  0  0
    2.2613   20.7308   17.3086 C   0  0  0  0  0  0  0  0  0  0  0  0
    2.9364   22.4560   15.6844 C   0  0  0  0  0  0  0  0  0  0  0  0
    2.9989   20.9978   16.0505 C   0  0  0  0  0  0  0  0  0  0  0  0
    2.1192   21.8599   18.2466 C   0  0  0  0  0  0  0  0  0  0  0  0
    3.0770   22.9712   18.1382 C   0  0  1  0  0  0  0  0  0  0  0  0
    9.7086   23.8899   19.4889 O   0  0  0  0  0  0  0  0  0  0  0  0
   11.5473   23.0997   21.8964 C   0  0  0  0  0  0  0  0  0  0  0  0
   13.6577   23.8111   21.1500 O   0  0  0  0  0  0  0  0  0  0  0  0
  1 13  1  0
 25  1  1  0
  1 26  2  0
  3  2  1  0
  4  2  1  0
  2 11  1  1
  5  3  1  0
  6  4  1  0
  7  5  1  6
  7  6  1  0
 23  7  1  0
  9  8  2  0
 10  8  1  0
  8 14  1  0
 12  9  1  0
  9 25  1  0
 11 10  1  0
 10 15  1  1
 11 12  1  0
 12 24  2  0
 14 17  2  0
 16 17  1  0
 25 16  2  0
 20 18  1  0
 23 18  1  6
 21 19  1  0
 19 22  1  0
 20 21  1  0
 22 23  1  0
M  CHG  1   7   1
M  END
$$$$
