
     RDKit          3D

 26 29  0  0  0  0  0  0  0  0999 V2000
   11.9667   23.7864   20.8539 C   0  0  0  0  0  0  0  0  0  0  0  0
    6.5904   22.2553   19.7327 C   0  0  2  0  0  0  0  0  0  0  0  0
    5.7467   23.5268   19.8322 C   0  0  0  0  0  0  0  0  0  0  0  0
    5.7483   21.0240   19.8846 C   0  0  0  0  0  0  0  0  0  0  0  0
    4.7598   23.3799   18.6603 C   0  0  0  0  0  0  0  0  0  0  0  0
    4.3813   21.0970   19.3549 C   0  0  0  0  0  0  0  0  0  0  0  0
    3.8261   22.3626   19.0752 N   0  0  2  0  0  4  0  0  0  0  0  0
    9.0667   22.0729   22.5391 C   0  0  0  0  0  0  0  0  0  0  0  0
    9.8195   22.7183   21.5999 C   0  0  0  0  0  0  0  0  0  0  0  0
    7.7119   21.7999   22.0362 C   0  0  2  0  0  0  0  0  0  0  0  0
    7.6862   22.2996   20.6972 N   0  0  0  0  0  0  0  0  0  0  0  0
    8.9639   22.8653   20.4437 C   0  0  0  0  0  0  0  0  0  0  0  0
   11.3857   24.6159   19.8714 N   0  0  0  0  0  0  0  0  0  0  0  0
    9.6700   21.7922   23.7771 C   0  0  0  0  0  0  0  0  0  0  0  0
    6.7646   22.6079   22.9381 C   0  0  0  0  0  0  0  0  0  0  0  0
   11.7048   22.8035   23.0694 C   0  0  0  0  0  0  0  0  0  0  0  0
   10.9680   22.1580   24.0223 C   0  0  0  0  0  0  0  0  0  0  0  0
    2.0357   23.5708   17.9964 C   0  0  0  0  0  0  0  0  0  0  0  0
    3.3357   22.3512   15.7091 C   0  0  0  0  0  0  0  0  0  0  0  0
    1.6255   23.8886   16.5934 C   0  0  0  0  0  0  0  0  0  0  0  0
    2.8343   23.7465   15.7085 C   0  0  0  0  0  0  0  0  0  0  0  0
    3.0240   21.5348   16.8971 C   0  0  0  0  0  0  0  0  0  0  0  0
    2.6990   22.2353   18.1493 C   0  0  1  0  0  0  0  0  0  0  0  0
    9.2633   23.4149   19.3326 O   0  0  0  0  0  0  0  0  0  0  0  0
   11.1355   23.0999   21.8220 C   0  0  0  0  0  0  0  0  0  0  0  0
   13.1974   23.6721   20.8533 O   0  0  0  0  0  0  0  0  0  0  0  0
  1 13  1  0
 25  1  1  0
  1 26  2  0
  3  2  1  0
  4  2  1  0
  2 11  1  1
  5  3  1  0
  6  4  1  0
  7  5  1  6
  7  6  1  0
 23  7  1  0
  9  8  2  0
 10  8  1  0
  8 14  1  0
 12  9  1  0
  9 25  1  0
 11 10  1  0
 10 15  1  1
 11 12  1  0
 12 24  2  0
 14 17  2  0
 16 17  1  0
 25 16  2  0
 20 18  1  0
 23 18  1  6
 21 19  1  0
 19 22  1  0
 20 21  1  0
 22 23  1  0
M  CHG  1   7   1
M  END
$$$$
