
     RDKit          3D

 12 12  0  0  0  0  0  0  0  0999 V2000
   -7.0654  -32.1638  -16.4146 C   0  0  1  0  0  0  0  0  0  0  0  0
   -8.1096  -31.7927  -15.4255 C   0  0  1  0  0  0  0  0  0  0  0  0
   -7.7097  -32.3727  -14.0849 C   0  0  2  0  0  0  0  0  0  0  0  0
   -7.7200  -33.8870  -14.3342 C   0  0  1  0  0  0  0  0  0  0  0  0
   -6.5968  -34.1536  -15.2726 C   0  0  1  0  0  0  0  0  0  0  0  0
   -6.8334  -35.4181  -16.1088 C   0  0  0  0  0  0  0  0  0  0  0  0
   -6.3034  -31.0226  -16.6782 O   0  0  0  0  0  0  0  0  0  0  0  0
   -8.2393  -30.3981  -15.3052 O   0  0  0  0  0  0  0  0  0  0  0  0
   -8.5886  -32.0215  -13.0758 O   0  0  0  0  0  0  0  0  0  0  0  0
   -7.6207  -34.5317  -13.1282 O   0  0  0  0  0  0  0  0  0  0  0  0
   -6.2260  -33.1645  -16.0944 O   0  0  0  0  0  0  0  0  0  0  0  0
   -5.7309  -35.6987  -16.9052 O   0  0  0  0  0  0  0  0  0  0  0  0
  1  2  1  0
  1  7  1  1
 11  1  1  0
  3  2  1  0
  2  8  1  1
  4  3  1  0
  3  9  1  1
  5  4  1  0
  4 10  1  1
  5  6  1  6
  5 11  1  0
 12  6  1  0
M  END
$$$$
