
     RDKit          3D

 12 12  0  0  0  0  0  0  0  0999 V2000
   -7.0096  -32.6349  -16.7218 C   0  0  1  0  0  0  0  0  0  0  0  0
   -8.0137  -32.1723  -15.7297 C   0  0  1  0  0  0  0  0  0  0  0  0
   -7.4563  -32.4317  -14.3457 C   0  0  2  0  0  0  0  0  0  0  0  0
   -7.3179  -33.9594  -14.2975 C   0  0  1  0  0  0  0  0  0  0  0  0
   -6.2433  -34.3025  -15.2674 C   0  0  1  0  0  0  0  0  0  0  0  0
   -6.3993  -35.7255  -15.8196 C   0  0  0  0  0  0  0  0  0  0  0  0
   -6.3988  -31.5036  -17.2691 O   0  0  0  0  0  0  0  0  0  0  0  0
   -8.2870  -30.8003  -15.8680 O   0  0  0  0  0  0  0  0  0  0  0  0
   -8.2930  -31.9690  -13.3457 O   0  0  0  0  0  0  0  0  0  0  0  0
   -7.0612  -34.3369  -13.0047 O   0  0  0  0  0  0  0  0  0  0  0  0
   -6.0441  -33.4681  -16.2946 O   0  0  0  0  0  0  0  0  0  0  0  0
   -5.3954  -36.0146  -16.7345 O   0  0  0  0  0  0  0  0  0  0  0  0
  1  2  1  0
  1  7  1  1
 11  1  1  0
  3  2  1  0
  2  8  1  1
  4  3  1  0
  3  9  1  1
  5  4  1  0
  4 10  1  1
  5  6  1  6
  5 11  1  0
 12  6  1  0
M  END
$$$$
