
     RDKit          3D

 12 12  0  0  0  0  0  0  0  0999 V2000
   -6.4998  -32.2493  -16.6463 C   0  0  1  0  0  0  0  0  0  0  0  0
   -7.5701  -31.7475  -15.7469 C   0  0  1  0  0  0  0  0  0  0  0  0
   -7.3870  -32.4015  -14.3932 C   0  0  2  0  0  0  0  0  0  0  0  0
   -7.5890  -33.8940  -14.6881 C   0  0  1  0  0  0  0  0  0  0  0  0
   -6.4308  -34.3048  -15.5265 C   0  0  1  0  0  0  0  0  0  0  0  0
   -6.7641  -35.5077  -16.4188 C   0  0  0  0  0  0  0  0  0  0  0  0
   -5.5612  -31.2262  -16.8039 O   0  0  0  0  0  0  0  0  0  0  0  0
   -7.5107  -30.3511  -15.5970 O   0  0  0  0  0  0  0  0  0  0  0  0
   -8.2992  -31.9436  -13.4593 O   0  0  0  0  0  0  0  0  0  0  0  0
   -7.6984  -34.5663  -13.4981 O   0  0  0  0  0  0  0  0  0  0  0  0
   -5.8460  -33.3662  -16.2804 O   0  0  0  0  0  0  0  0  0  0  0  0
   -5.6586  -35.8908  -17.1668 O   0  0  0  0  0  0  0  0  0  0  0  0
  1  2  1  0
  1  7  1  1
 11  1  1  0
  3  2  1  0
  2  8  1  1
  4  3  1  0
  3  9  1  1
  5  4  1  0
  4 10  1  1
  5  6  1  6
  5 11  1  0
 12  6  1  0
M  END
$$$$
