
     RDKit          3D

 12 12  0  0  0  0  0  0  0  0999 V2000
   -6.8595  -33.5303  -13.8985 C   0  0  1  0  0  0  0  0  0  0  0  0
   -7.0933  -32.0971  -14.2106 C   0  0  1  0  0  0  0  0  0  0  0  0
   -8.0335  -32.0247  -15.3956 C   0  0  2  0  0  0  0  0  0  0  0  0
   -7.2386  -32.6973  -16.5231 C   0  0  1  0  0  0  0  0  0  0  0  0
   -7.1291  -34.1320  -16.1454 C   0  0  1  0  0  0  0  0  0  0  0  0
   -5.8908  -34.7964  -16.7616 C   0  0  0  0  0  0  0  0  0  0  0  0
   -7.5831  -33.8385  -12.7436 O   0  0  0  0  0  0  0  0  0  0  0  0
   -7.6671  -31.4153  -13.1234 O   0  0  0  0  0  0  0  0  0  0  0  0
   -8.3700  -30.7231  -15.7223 O   0  0  0  0  0  0  0  0  0  0  0  0
   -7.8821  -32.4680  -17.7118 O   0  0  0  0  0  0  0  0  0  0  0  0
   -7.1700  -34.4363  -14.8427 O   0  0  0  0  0  0  0  0  0  0  0  0
   -5.7216  -36.0830  -16.2673 O   0  0  0  0  0  0  0  0  0  0  0  0
  1  2  1  0
  1  7  1  1
 11  1  1  0
  3  2  1  0
  2  8  1  1
  4  3  1  0
  3  9  1  6
  5  4  1  0
  4 10  1  6
  5  6  1  1
  5 11  1  0
 12  6  1  0
M  END
$$$$
