
     RDKit          3D

 12 12  0  0  0  0  0  0  0  0999 V2000
   -7.1264  -33.0485  -16.6351 C   0  0  1  0  0  0  0  0  0  0  0  0
   -8.0795  -32.9180  -15.5033 C   0  0  1  0  0  0  0  0  0  0  0  0
   -7.2819  -32.6003  -14.2557 C   0  0  2  0  0  0  0  0  0  0  0  0
   -6.3972  -33.8408  -14.0725 C   0  0  1  0  0  0  0  0  0  0  0  0
   -5.4400  -33.8311  -15.2113 C   0  0  1  0  0  0  0  0  0  0  0  0
   -4.9424  -35.2408  -15.5569 C   0  0  0  0  0  0  0  0  0  0  0  0
   -7.2413  -31.9007  -17.4235 O   0  0  0  0  0  0  0  0  0  0  0  0
   -9.0149  -31.8928  -15.7272 O   0  0  0  0  0  0  0  0  0  0  0  0
   -8.0906  -32.3898  -13.1530 O   0  0  0  0  0  0  0  0  0  0  0  0
   -5.8110  -33.7836  -12.8344 O   0  0  0  0  0  0  0  0  0  0  0  0
   -5.8262  -33.2283  -16.3421 O   0  0  0  0  0  0  0  0  0  0  0  0
   -5.8953  -36.1964  -15.2297 O   0  0  0  0  0  0  0  0  0  0  0  0
  1  2  1  0
  1  7  1  1
 11  1  1  0
  3  2  1  0
  2  8  1  6
  4  3  1  0
  3  9  1  1
  5  4  1  0
  4 10  1  1
  5  6  1  6
  5 11  1  0
 12  6  1  0
M  END
$$$$
