
     RDKit          3D

 12 12  0  0  0  0  0  0  0  0999 V2000
   -6.8163  -32.3841  -16.4105 C   0  0  1  0  0  0  0  0  0  0  0  0
   -7.8875  -31.8797  -15.5135 C   0  0  1  0  0  0  0  0  0  0  0  0
   -7.6926  -32.5131  -14.1517 C   0  0  2  0  0  0  0  0  0  0  0  0
   -7.8821  -34.0114  -14.4249 C   0  0  1  0  0  0  0  0  0  0  0  0
   -6.7236  -34.4231  -15.2626 C   0  0  1  0  0  0  0  0  0  0  0  0
   -7.0495  -35.6413  -16.1366 C   0  0  0  0  0  0  0  0  0  0  0  0
   -5.8880  -31.3548  -16.5863 O   0  0  0  0  0  0  0  0  0  0  0  0
   -7.8404  -30.4808  -15.3833 O   0  0  0  0  0  0  0  0  0  0  0  0
   -8.6052  -32.0506  -13.2203 O   0  0  0  0  0  0  0  0  0  0  0  0
   -7.9802  -34.6679  -13.2253 O   0  0  0  0  0  0  0  0  0  0  0  0
   -6.1507  -33.4897  -16.0320 O   0  0  0  0  0  0  0  0  0  0  0  0
   -5.9344  -36.0451  -16.8590 O   0  0  0  0  0  0  0  0  0  0  0  0
  1  2  1  0
  1  7  1  1
 11  1  1  0
  3  2  1  0
  2  8  1  1
  4  3  1  0
  3  9  1  1
  5  4  1  0
  4 10  1  1
  5  6  1  6
  5 11  1  0
 12  6  1  0
M  END
$$$$
