
     RDKit          3D

 12 12  0  0  0  0  0  0  0  0999 V2000
   -7.0997  -32.1309  -16.3738 C   0  0  1  0  0  0  0  0  0  0  0  0
   -8.1974  -31.9911  -15.3829 C   0  0  1  0  0  0  0  0  0  0  0  0
   -7.7620  -32.6761  -14.1043 C   0  0  2  0  0  0  0  0  0  0  0  0
   -7.6002  -34.1436  -14.5232 C   0  0  1  0  0  0  0  0  0  0  0  0
   -6.4364  -34.1776  -15.4494 C   0  0  1  0  0  0  0  0  0  0  0  0
   -6.5157  -35.3549  -16.4301 C   0  0  0  0  0  0  0  0  0  0  0  0
   -6.4633  -30.8917  -16.4824 O   0  0  0  0  0  0  0  0  0  0  0  0
   -8.4827  -30.6419  -15.1102 O   0  0  0  0  0  0  0  0  0  0  0  0
   -8.6937  -32.5404  -13.0905 O   0  0  0  0  0  0  0  0  0  0  0  0
   -7.4538  -34.9091  -13.3952 O   0  0  0  0  0  0  0  0  0  0  0  0
   -6.1613  -33.0659  -16.1420 O   0  0  0  0  0  0  0  0  0  0  0  0
   -6.1860  -36.5475  -15.7999 O   0  0  0  0  0  0  0  0  0  0  0  0
  1  2  1  0
  1  7  1  1
 11  1  1  0
  3  2  1  0
  2  8  1  1
  4  3  1  0
  3  9  1  1
  5  4  1  0
  4 10  1  1
  5  6  1  6
  5 11  1  0
 12  6  1  0
M  END
$$$$
