
     RDKit          3D

 12 12  0  0  0  0  0  0  0  0999 V2000
   -6.6954  -31.9078  -16.4782 C   0  0  1  0  0  0  0  0  0  0  0  0
   -7.8735  -31.7247  -15.5923 C   0  0  1  0  0  0  0  0  0  0  0  0
   -7.6528  -32.5544  -14.3447 C   0  0  2  0  0  0  0  0  0  0  0  0
   -7.5999  -33.9926  -14.8777 C   0  0  1  0  0  0  0  0  0  0  0  0
   -6.3525  -34.0836  -15.6833 C   0  0  1  0  0  0  0  0  0  0  0  0
   -6.4469  -35.1622  -16.7704 C   0  0  0  0  0  0  0  0  0  0  0  0
   -5.9257  -30.7436  -16.4096 O   0  0  0  0  0  0  0  0  0  0  0  0
   -8.0449  -30.3781  -15.2271 O   0  0  0  0  0  0  0  0  0  0  0  0
   -8.6697  -32.3960  -13.4200 O   0  0  0  0  0  0  0  0  0  0  0  0
   -7.6569  -34.8574  -13.8153 O   0  0  0  0  0  0  0  0  0  0  0  0
   -5.8899  -32.9583  -16.2409 O   0  0  0  0  0  0  0  0  0  0  0  0
   -6.6321  -36.4180  -16.2073 O   0  0  0  0  0  0  0  0  0  0  0  0
  1  2  1  0
  1  7  1  1
 11  1  1  0
  3  2  1  0
  2  8  1  1
  4  3  1  0
  3  9  1  1
  5  4  1  0
  4 10  1  1
  5  6  1  6
  5 11  1  0
 12  6  1  0
M  END
$$$$
