
     RDKit          3D

 12 12  0  0  0  0  0  0  0  0999 V2000
   -7.9935  -35.0761  -15.9809 C   0  0  1  0  0  0  0  0  0  0  0  0
   -8.2491  -34.3407  -14.7159 C   0  0  1  0  0  0  0  0  0  0  0  0
   -7.4378  -33.0623  -14.7471 C   0  0  2  0  0  0  0  0  0  0  0  0
   -5.9874  -33.5614  -14.7946 C   0  0  1  0  0  0  0  0  0  0  0  0
   -5.8224  -34.2102  -16.1232 C   0  0  1  0  0  0  0  0  0  0  0  0
   -4.7255  -35.2830  -16.1075 C   0  0  0  0  0  0  0  0  0  0  0  0
   -9.1229  -34.9350  -16.7915 O   0  0  0  0  0  0  0  0  0  0  0  0
   -9.6098  -34.0209  -14.5665 O   0  0  0  0  0  0  0  0  0  0  0  0
   -7.6624  -32.2688  -13.6362 O   0  0  0  0  0  0  0  0  0  0  0  0
   -5.1495  -32.4995  -14.5707 O   0  0  0  0  0  0  0  0  0  0  0  0
   -6.9131  -34.7269  -16.7017 O   0  0  0  0  0  0  0  0  0  0  0  0
   -4.6016  -35.8462  -14.8442 O   0  0  0  0  0  0  0  0  0  0  0  0
  1  2  1  0
  1  7  1  6
 11  1  1  0
  3  2  1  0
  2  8  1  6
  4  3  1  0
  3  9  1  1
  5  4  1  0
  4 10  1  6
  5  6  1  1
  5 11  1  0
 12  6  1  0
M  END
$$$$
