
     RDKit          3D

 12 12  0  0  0  0  0  0  0  0999 V2000
   -7.1009  -33.8170  -17.1607 C   0  0  1  0  0  0  0  0  0  0  0  0
   -8.0627  -33.1148  -16.2731 C   0  0  1  0  0  0  0  0  0  0  0  0
   -7.3478  -32.7829  -14.9799 C   0  0  2  0  0  0  0  0  0  0  0  0
   -6.9934  -34.1608  -14.4046 C   0  0  1  0  0  0  0  0  0  0  0  0
   -5.9766  -34.7379  -15.3245 C   0  0  1  0  0  0  0  0  0  0  0  0
   -5.9832  -36.2720  -15.3000 C   0  0  0  0  0  0  0  0  0  0  0  0
   -6.7080  -32.9202  -18.1576 O   0  0  0  0  0  0  0  0  0  0  0  0
   -8.5368  -31.9270  -16.8568 O   0  0  0  0  0  0  0  0  0  0  0  0
   -8.1439  -32.0615  -14.1081 O   0  0  0  0  0  0  0  0  0  0  0  0
   -6.5669  -34.0007  -13.1114 O   0  0  0  0  0  0  0  0  0  0  0  0
   -5.9929  -34.3337  -16.6003 O   0  0  0  0  0  0  0  0  0  0  0  0
   -5.0890  -36.7860  -16.2299 O   0  0  0  0  0  0  0  0  0  0  0  0
  1  2  1  0
  1  7  1  6
 11  1  1  0
  3  2  1  0
  2  8  1  6
  4  3  1  0
  3  9  1  1
  5  4  1  0
  4 10  1  1
  5  6  1  6
  5 11  1  0
 12  6  1  0
M  END
$$$$
