
     RDKit          3D

 12 12  0  0  0  0  0  0  0  0999 V2000
   -7.5196  -34.7101  -16.5950 C   0  0  1  0  0  0  0  0  0  0  0  0
   -8.4222  -34.0956  -15.5881 C   0  0  1  0  0  0  0  0  0  0  0  0
   -7.5762  -33.2571  -14.6528 C   0  0  2  0  0  0  0  0  0  0  0  0
   -6.6520  -34.2865  -13.9884 C   0  0  1  0  0  0  0  0  0  0  0  0
   -5.7492  -34.7783  -15.0637 C   0  0  1  0  0  0  0  0  0  0  0  0
   -5.2318  -36.1942  -14.7779 C   0  0  0  0  0  0  0  0  0  0  0  0
   -7.7007  -34.0291  -17.8015 O   0  0  0  0  0  0  0  0  0  0  0  0
   -9.3933  -33.2774  -16.1912 O   0  0  0  0  0  0  0  0  0  0  0  0
   -8.3381  -32.5833  -13.7149 O   0  0  0  0  0  0  0  0  0  0  0  0
   -6.0108  -33.6865  -12.9355 O   0  0  0  0  0  0  0  0  0  0  0  0
   -6.2030  -34.7383  -16.3222 O   0  0  0  0  0  0  0  0  0  0  0  0
   -4.3926  -36.6296  -15.7951 O   0  0  0  0  0  0  0  0  0  0  0  0
  1  2  1  0
  1  7  1  6
 11  1  1  0
  3  2  1  0
  2  8  1  6
  4  3  1  0
  3  9  1  1
  5  4  1  0
  4 10  1  1
  5  6  1  1
  5 11  1  0
 12  6  1  0
M  END
$$$$
