
     RDKit          3D

 12 12  0  0  0  0  0  0  0  0999 V2000
   -7.8072  -34.8718  -16.5237 C   0  0  1  0  0  0  0  0  0  0  0  0
   -8.5068  -34.1807  -15.4105 C   0  0  1  0  0  0  0  0  0  0  0  0
   -7.5504  -33.1687  -14.8148 C   0  0  2  0  0  0  0  0  0  0  0  0
   -6.4055  -34.0357  -14.2738 C   0  0  1  0  0  0  0  0  0  0  0  0
   -5.7330  -34.6150  -15.4677 C   0  0  1  0  0  0  0  0  0  0  0  0
   -5.0330  -35.9420  -15.1466 C   0  0  0  0  0  0  0  0  0  0  0  0
   -8.3249  -34.3781  -17.7240 O   0  0  0  0  0  0  0  0  0  0  0  0
   -9.6632  -33.5170  -15.8558 O   0  0  0  0  0  0  0  0  0  0  0  0
   -8.1352  -32.4199  -13.8091 O   0  0  0  0  0  0  0  0  0  0  0  0
   -5.5978  -33.2559  -13.4867 O   0  0  0  0  0  0  0  0  0  0  0  0
   -6.4665  -34.7791  -16.5751 O   0  0  0  0  0  0  0  0  0  0  0  0
   -4.3473  -36.4211  -16.2550 O   0  0  0  0  0  0  0  0  0  0  0  0
  1  2  1  0
  1  7  1  6
 11  1  1  0
  3  2  1  0
  2  8  1  6
  4  3  1  0
  3  9  1  1
  5  4  1  0
  4 10  1  6
  5  6  1  1
  5 11  1  0
 12  6  1  0
M  END
$$$$
