
     RDKit          3D

 12 12  0  0  0  0  0  0  0  0999 V2000
   -7.3244  -32.5122  -16.6279 C   0  0  1  0  0  0  0  0  0  0  0  0
   -8.2839  -32.3728  -15.5026 C   0  0  1  0  0  0  0  0  0  0  0  0
   -7.5457  -32.6873  -14.2181 C   0  0  2  0  0  0  0  0  0  0  0  0
   -7.1337  -34.1552  -14.3939 C   0  0  1  0  0  0  0  0  0  0  0  0
   -6.1240  -34.1675  -15.4865 C   0  0  1  0  0  0  0  0  0  0  0  0
   -6.0822  -35.5165  -16.2163 C   0  0  0  0  0  0  0  0  0  0  0  0
   -6.9860  -31.2276  -17.0609 O   0  0  0  0  0  0  0  0  0  0  0  0
   -8.8099  -31.0714  -15.4262 O   0  0  0  0  0  0  0  0  0  0  0  0
   -8.3406  -32.5169  -13.0986 O   0  0  0  0  0  0  0  0  0  0  0  0
   -6.6783  -34.6309  -13.1914 O   0  0  0  0  0  0  0  0  0  0  0  0
   -6.1865  -33.1921  -16.4009 O   0  0  0  0  0  0  0  0  0  0  0  0
   -6.5886  -36.5299  -15.4132 O   0  0  0  0  0  0  0  0  0  0  0  0
  1  2  1  0
  1  7  1  1
 11  1  1  0
  3  2  1  0
  2  8  1  1
  4  3  1  0
  3  9  1  1
  5  4  1  0
  4 10  1  1
  5  6  1  6
  5 11  1  0
 12  6  1  0
M  END
$$$$
