
     RDKit          3D

 12 12  0  0  0  0  0  0  0  0999 V2000
   -7.2752  -32.7926  -16.6504 C   0  0  1  0  0  0  0  0  0  0  0  0
   -8.0459  -32.3044  -15.4782 C   0  0  1  0  0  0  0  0  0  0  0  0
   -7.1721  -32.4535  -14.2502 C   0  0  2  0  0  0  0  0  0  0  0  0
   -6.9490  -33.9687  -14.1531 C   0  0  1  0  0  0  0  0  0  0  0  0
   -6.1108  -34.3338  -15.3266 C   0  0  1  0  0  0  0  0  0  0  0  0
   -6.3174  -35.7942  -15.7495 C   0  0  0  0  0  0  0  0  0  0  0  0
   -6.8652  -31.6772  -17.3854 O   0  0  0  0  0  0  0  0  0  0  0  0
   -8.4130  -30.9552  -15.6229 O   0  0  0  0  0  0  0  0  0  0  0  0
   -7.7783  -31.9584  -13.1093 O   0  0  0  0  0  0  0  0  0  0  0  0
   -6.3825  -34.2525  -12.9372 O   0  0  0  0  0  0  0  0  0  0  0  0
   -6.1963  -33.5605  -16.4156 O   0  0  0  0  0  0  0  0  0  0  0  0
   -5.5158  -36.1128  -16.8377 O   0  0  0  0  0  0  0  0  0  0  0  0
  1  2  1  0
  1  7  1  1
 11  1  1  0
  3  2  1  0
  2  8  1  6
  4  3  1  0
  3  9  1  1
  5  4  1  0
  4 10  1  1
  5  6  1  6
  5 11  1  0
 12  6  1  0
M  END
$$$$
