
     RDKit          3D

 12 12  0  0  0  0  0  0  0  0999 V2000
   -7.4296  -34.7697  -15.1891 C   0  0  1  0  0  0  0  0  0  0  0  0
   -7.6136  -33.6376  -14.2451 C   0  0  1  0  0  0  0  0  0  0  0  0
   -7.8811  -32.3893  -15.0598 C   0  0  2  0  0  0  0  0  0  0  0  0
   -6.5902  -32.2088  -15.8700 C   0  0  1  0  0  0  0  0  0  0  0  0
   -6.5460  -33.3475  -16.8263 C   0  0  1  0  0  0  0  0  0  0  0  0
   -5.1103  -33.6961  -17.2401 C   0  0  0  0  0  0  0  0  0  0  0  0
   -8.5839  -35.5556  -15.1421 O   0  0  0  0  0  0  0  0  0  0  0  0
   -8.6925  -33.8593  -13.3718 O   0  0  0  0  0  0  0  0  0  0  0  0
   -8.1364  -31.2862  -14.2648 O   0  0  0  0  0  0  0  0  0  0  0  0
   -6.6101  -30.9705  -16.4583 O   0  0  0  0  0  0  0  0  0  0  0  0
   -7.1730  -34.4770  -16.4764 O   0  0  0  0  0  0  0  0  0  0  0  0
   -5.0996  -34.7246  -18.1731 O   0  0  0  0  0  0  0  0  0  0  0  0
  1  2  1  0
  1  7  1  6
 11  1  1  0
  3  2  1  0
  2  8  1  1
  4  3  1  0
  3  9  1  1
  5  4  1  0
  4 10  1  6
  5  6  1  1
  5 11  1  0
 12  6  1  0
M  END
$$$$
