
     RDKit          3D

 23 25  0  0  0  0  0  0  0  0999 V2000
  -18.2540   17.2981  136.6205 O   0  0  0  0  0  1  0  0  0  0  0  0
  -18.3109   17.2421  135.2565 C   0  0  0  0  0  0  0  0  0  0  0  0
  -17.2957   17.0585  134.5713 O   0  0  0  0  0  0  0  0  0  0  0  0
  -19.6267   17.4065  134.5898 C   0  0  0  0  0  0  0  0  0  0  0  0
  -20.6678   17.5365  135.3009 N   0  0  0  0  0  0  0  0  0  0  0  0
  -19.6870   17.4141  133.1229 C   0  0  0  0  0  0  0  0  0  0  0  0
  -19.2203   16.2011  132.5827 O   0  0  0  0  0  0  0  0  0  0  0  0
  -21.0505   17.5844  132.6212 C   0  0  0  0  0  0  0  0  0  0  0  0
  -21.2670   17.6114  131.3497 O   0  0  0  0  0  0  0  0  0  0  0  0
  -22.1779   17.7252  133.5299 C   0  0  0  0  0  0  0  0  0  0  0  0
  -22.0022   17.7032  134.8465 C   0  0  0  0  0  0  0  0  0  0  0  0
  -23.1165   17.8424  135.7762 C   0  0  0  0  0  0  0  0  0  0  0  0
  -23.5316   16.7913  136.5755 C   0  0  0  0  0  0  0  0  0  0  0  0
  -22.8109   15.4974  136.4686 C   0  0  0  0  0  0  0  0  0  0  0  0
  -24.5923   16.9436  137.4524 C   0  0  0  0  0  0  0  0  0  0  0  0
  -23.8066   19.0239  135.9022 C   0  0  0  0  0  0  0  0  0  0  0  0
  -24.8705   19.1948  136.7743 C   0  0  0  0  0  0  0  0  0  0  0  0
  -25.2499   18.1258  137.5493 C   0  0  0  0  0  0  0  0  0  0  0  0
  -26.3546   18.2400  138.4808 C   0  0  0  0  0  0  0  0  0  0  0  0
  -27.4410   19.0092  138.3715 N   0  0  0  0  0  0  0  0  0  0  0  0
  -28.2137   18.8206  139.4421 N   0  0  0  0  0  0  0  0  0  0  0  0
  -27.6073   17.9456  140.1987 N   0  0  0  0  0  0  0  0  0  0  0  0
  -26.4628   17.5718  139.6323 N   0  0  0  0  0  0  0  0  0  0  0  0
  1  2  1  0
  2  3  2  0
  2  4  1  0
  4  5  2  0
  4  6  1  0
  5 11  1  0
  6  7  1  0
  6  8  1  0
  8  9  2  0
  8 10  1  0
 10 11  2  0
 11 12  1  0
 12 13  2  0
 12 16  1  0
 13 14  1  0
 13 15  1  0
 15 18  2  0
 16 17  2  0
 17 18  1  0
 18 19  1  0
 19 20  2  0
 19 23  1  0
 20 21  1  0
 21 22  2  0
 22 23  1  0
M  CHG  1   1  -1
M  END
$$$$
