
     RDKit          3D

 23 25  0  0  0  0  0  0  0  0999 V2000
  -18.0824   17.9086  136.7004 O   0  0  0  0  0  1  0  0  0  0  0  0
  -18.1623   17.7713  135.3433 C   0  0  0  0  0  0  0  0  0  0  0  0
  -17.1508   17.6163  134.6458 O   0  0  0  0  0  0  0  0  0  0  0  0
  -19.4990   17.8103  134.6997 C   0  0  0  0  0  0  0  0  0  0  0  0
  -20.5308   17.9356  135.4251 N   0  0  0  0  0  0  0  0  0  0  0  0
  -19.5904   17.7025  133.2383 C   0  0  0  0  0  0  0  0  0  0  0  0
  -19.0658   16.4799  132.7790 O   0  0  0  0  0  0  0  0  0  0  0  0
  -20.9717   17.7573  132.7598 C   0  0  0  0  0  0  0  0  0  0  0  0
  -21.2159   17.6751  131.4957 O   0  0  0  0  0  0  0  0  0  0  0  0
  -22.0860   17.9036  133.6836 C   0  0  0  0  0  0  0  0  0  0  0  0
  -21.8819   17.9921  134.9932 C   0  0  0  0  0  0  0  0  0  0  0  0
  -22.9826   18.1391  135.9378 C   0  0  0  0  0  0  0  0  0  0  0  0
  -23.3070   17.1383  136.8373 C   0  0  0  0  0  0  0  0  0  0  0  0
  -22.5013   15.8909  136.8241 C   0  0  0  0  0  0  0  0  0  0  0  0
  -24.3563   17.2972  137.7265 C   0  0  0  0  0  0  0  0  0  0  0  0
  -23.7496   19.2786  135.9788 C   0  0  0  0  0  0  0  0  0  0  0  0
  -24.8035   19.4554  136.8618 C   0  0  0  0  0  0  0  0  0  0  0  0
  -25.0914   18.4369  137.7376 C   0  0  0  0  0  0  0  0  0  0  0  0
  -26.1809   18.5599  138.6858 C   0  0  0  0  0  0  0  0  0  0  0  0
  -26.3199   17.9354  139.8583 N   0  0  0  0  0  0  0  0  0  0  0  0
  -27.4630   18.3261  140.4233 N   0  0  0  0  0  0  0  0  0  0  0  0
  -28.0181   19.1804  139.6061 N   0  0  0  0  0  0  0  0  0  0  0  0
  -27.2519   19.3428  138.5305 N   0  0  0  0  0  0  0  0  0  0  0  0
  1  2  1  0
  2  3  2  0
  2  4  1  0
  4  5  2  0
  4  6  1  0
  5 11  1  0
  6  7  1  0
  6  8  1  0
  8  9  2  0
  8 10  1  0
 10 11  2  0
 11 12  1  0
 12 13  2  0
 12 16  1  0
 13 14  1  0
 13 15  1  0
 15 18  2  0
 16 17  2  0
 17 18  1  0
 18 19  1  0
 19 20  2  0
 19 23  1  0
 20 21  1  0
 21 22  2  0
 22 23  1  0
M  CHG  1   1  -1
M  END
$$$$
