
     RDKit          3D

 23 25  0  0  0  0  0  0  0  0999 V2000
  -22.3366   19.4734  132.9391 O   0  0  0  0  0  1  0  0  0  0  0  0
  -21.2337   18.7011  132.7069 C   0  0  0  0  0  0  0  0  0  0  0  0
  -20.5913   18.7873  131.6516 O   0  0  0  0  0  0  0  0  0  0  0  0
  -20.8037   17.7386  133.7516 C   0  0  0  0  0  0  0  0  0  0  0  0
  -21.4448   17.6847  134.8436 N   0  0  0  0  0  0  0  0  0  0  0  0
  -19.6461   16.8738  133.4916 C   0  0  0  0  0  0  0  0  0  0  0  0
  -18.4787   17.6290  133.2730 O   0  0  0  0  0  0  0  0  0  0  0  0
  -19.3504   15.9844  134.6147 C   0  0  0  0  0  0  0  0  0  0  0  0
  -18.3592   15.1622  134.5376 O   0  0  0  0  0  0  0  0  0  0  0  0
  -20.1544   16.0052  135.8270 C   0  0  0  0  0  0  0  0  0  0  0  0
  -21.1843   16.8351  135.9507 C   0  0  0  0  0  0  0  0  0  0  0  0
  -22.0040   16.8738  137.1557 C   0  0  0  0  0  0  0  0  0  0  0  0
  -21.4407   16.9947  138.4142 C   0  0  0  0  0  0  0  0  0  0  0  0
  -19.9621   17.0860  138.5186 C   0  0  0  0  0  0  0  0  0  0  0  0
  -22.2365   17.0296  139.5467 C   0  0  0  0  0  0  0  0  0  0  0  0
  -23.3745   16.7919  137.0979 C   0  0  0  0  0  0  0  0  0  0  0  0
  -24.1871   16.8251  138.2204 C   0  0  0  0  0  0  0  0  0  0  0  0
  -23.5867   16.9461  139.4502 C   0  0  0  0  0  0  0  0  0  0  0  0
  -24.3807   16.9867  140.6623 C   0  0  0  0  0  0  0  0  0  0  0  0
  -25.5826   16.4433  140.8719 N   0  0  0  0  0  0  0  0  0  0  0  0
  -25.9658   16.7101  142.1212 N   0  0  0  0  0  0  0  0  0  0  0  0
  -25.0092   17.4092  142.6707 N   0  0  0  0  0  0  0  0  0  0  0  0
  -24.0228   17.5939  141.7969 N   0  0  0  0  0  0  0  0  0  0  0  0
  1  2  1  0
  2  3  2  0
  2  4  1  0
  4  5  2  0
  4  6  1  0
  5 11  1  0
  6  7  1  0
  6  8  1  0
  8  9  2  0
  8 10  1  0
 10 11  2  0
 11 12  1  0
 12 13  2  0
 12 16  1  0
 13 14  1  0
 13 15  1  0
 15 18  2  0
 16 17  2  0
 17 18  1  0
 18 19  1  0
 19 20  2  0
 19 23  1  0
 20 21  1  0
 21 22  2  0
 22 23  1  0
M  CHG  1   1  -1
M  END
$$$$
