
     RDKit          3D

 23 25  0  0  0  0  0  0  0  0999 V2000
  -22.0631   19.4982  132.1279 O   0  0  0  0  0  1  0  0  0  0  0  0
  -20.9680   18.6810  132.1211 C   0  0  0  0  0  0  0  0  0  0  0  0
  -20.1505   18.6987  131.1910 O   0  0  0  0  0  0  0  0  0  0  0  0
  -20.7627   17.7535  133.2614 C   0  0  0  0  0  0  0  0  0  0  0  0
  -21.5708   17.7856  134.2373 N   0  0  0  0  0  0  0  0  0  0  0  0
  -19.6279   16.8226  133.2282 C   0  0  0  0  0  0  0  0  0  0  0  0
  -18.4008   17.5095  133.1685 O   0  0  0  0  0  0  0  0  0  0  0  0
  -19.5633   15.9784  134.4210 C   0  0  0  0  0  0  0  0  0  0  0  0
  -18.6192   15.1072  134.5395 O   0  0  0  0  0  0  0  0  0  0  0  0
  -20.5470   16.0989  135.4861 C   0  0  0  0  0  0  0  0  0  0  0  0
  -21.5363   16.9819  135.4069 C   0  0  0  0  0  0  0  0  0  0  0  0
  -22.5334   17.1205  136.4615 C   0  0  0  0  0  0  0  0  0  0  0  0
  -22.1718   17.2387  137.7924 C   0  0  0  0  0  0  0  0  0  0  0  0
  -20.7268   17.2216  138.1342 C   0  0  0  0  0  0  0  0  0  0  0  0
  -23.1340   17.3694  138.7794 C   0  0  0  0  0  0  0  0  0  0  0  0
  -23.8788   17.1404  136.1830 C   0  0  0  0  0  0  0  0  0  0  0  0
  -24.8561   17.2705  137.1575 C   0  0  0  0  0  0  0  0  0  0  0  0
  -24.4535   17.3849  138.4660 C   0  0  0  0  0  0  0  0  0  0  0  0
  -25.4262   17.5238  139.5318 C   0  0  0  0  0  0  0  0  0  0  0  0
  -26.7317   17.2448  139.4897 N   0  0  0  0  0  0  0  0  0  0  0  0
  -27.2694   17.5118  140.6806 N   0  0  0  0  0  0  0  0  0  0  0  0
  -26.3040   17.9495  141.4437 N   0  0  0  0  0  0  0  0  0  0  0  0
  -25.1606   17.9672  140.7634 N   0  0  0  0  0  0  0  0  0  0  0  0
  1  2  1  0
  2  3  2  0
  2  4  1  0
  4  5  2  0
  4  6  1  0
  5 11  1  0
  6  7  1  0
  6  8  1  0
  8  9  2  0
  8 10  1  0
 10 11  2  0
 11 12  1  0
 12 13  2  0
 12 16  1  0
 13 14  1  0
 13 15  1  0
 15 18  2  0
 16 17  2  0
 17 18  1  0
 18 19  1  0
 19 20  2  0
 19 23  1  0
 20 21  1  0
 21 22  2  0
 22 23  1  0
M  CHG  1   1  -1
M  END
$$$$
