
     RDKit          3D

 23 25  0  0  0  0  0  0  0  0999 V2000
  -22.5173   19.3423  133.8746 O   0  0  0  0  0  1  0  0  0  0  0  0
  -21.4787   18.7561  133.2077 C   0  0  0  0  0  0  0  0  0  0  0  0
  -21.2603   18.9909  132.0114 O   0  0  0  0  0  0  0  0  0  0  0  0
  -20.5971   17.8167  133.9444 C   0  0  0  0  0  0  0  0  0  0  0  0
  -20.8586   17.5436  135.1541 N   0  0  0  0  0  0  0  0  0  0  0  0
  -19.4443   17.2282  133.2512 C   0  0  0  0  0  0  0  0  0  0  0  0
  -18.5425   18.2192  132.8203 O   0  0  0  0  0  0  0  0  0  0  0  0
  -18.6771   16.3265  134.1103 C   0  0  0  0  0  0  0  0  0  0  0  0
  -17.6323   15.7308  133.6435 O   0  0  0  0  0  0  0  0  0  0  0  0
  -19.0677   16.0834  135.4905 C   0  0  0  0  0  0  0  0  0  0  0  0
  -20.1360   16.6749  136.0134 C   0  0  0  0  0  0  0  0  0  0  0  0
  -20.5466   16.4467  137.3936 C   0  0  0  0  0  0  0  0  0  0  0  0
  -21.4241   15.4313  137.7323 C   0  0  0  0  0  0  0  0  0  0  0  0
  -21.9497   14.5633  136.6480 C   0  0  0  0  0  0  0  0  0  0  0  0
  -21.8019   15.2308  139.0492 C   0  0  0  0  0  0  0  0  0  0  0  0
  -20.0810   17.2294  138.4226 C   0  0  0  0  0  0  0  0  0  0  0  0
  -20.4480   17.0436  139.7464 C   0  0  0  0  0  0  0  0  0  0  0  0
  -21.3213   16.0241  140.0386 C   0  0  0  0  0  0  0  0  0  0  0  0
  -21.7439   15.7779  141.4032 C   0  0  0  0  0  0  0  0  0  0  0  0
  -21.3232   16.3899  142.5133 N   0  0  0  0  0  0  0  0  0  0  0  0
  -21.9606   15.8685  143.5624 N   0  0  0  0  0  0  0  0  0  0  0  0
  -22.7628   14.9474  143.1001 N   0  0  0  0  0  0  0  0  0  0  0  0
  -22.6501   14.8704  141.7765 N   0  0  0  0  0  0  0  0  0  0  0  0
  1  2  1  0
  2  3  2  0
  2  4  1  0
  4  5  2  0
  4  6  1  0
  5 11  1  0
  6  7  1  0
  6  8  1  0
  8  9  2  0
  8 10  1  0
 10 11  2  0
 11 12  1  0
 12 13  2  0
 12 16  1  0
 13 14  1  0
 13 15  1  0
 15 18  2  0
 16 17  2  0
 17 18  1  0
 18 19  1  0
 19 20  2  0
 19 23  1  0
 20 21  1  0
 21 22  2  0
 22 23  1  0
M  CHG  1   1  -1
M  END
$$$$
