
     RDKit          3D

 23 25  0  0  0  0  0  0  0  0999 V2000
  -18.6768   15.9537  136.5456 O   0  0  0  0  0  1  0  0  0  0  0  0
  -18.5671   16.3292  135.2365 C   0  0  0  0  0  0  0  0  0  0  0  0
  -17.5484   16.0875  134.5750 O   0  0  0  0  0  0  0  0  0  0  0  0
  -19.7024   17.0436  134.6014 C   0  0  0  0  0  0  0  0  0  0  0  0
  -20.7617   17.2379  135.2696 N   0  0  0  0  0  0  0  0  0  0  0  0
  -19.5677   17.5067  133.2147 C   0  0  0  0  0  0  0  0  0  0  0  0
  -19.3513   16.4318  132.3323 O   0  0  0  0  0  0  0  0  0  0  0  0
  -20.7688   18.1904  132.7354 C   0  0  0  0  0  0  0  0  0  0  0  0
  -20.8045   18.6560  131.5328 O   0  0  0  0  0  0  0  0  0  0  0  0
  -21.9340   18.3592  133.5901 C   0  0  0  0  0  0  0  0  0  0  0  0
  -21.9420   17.8961  134.8351 C   0  0  0  0  0  0  0  0  0  0  0  0
  -23.0977   18.0535  135.7097 C   0  0  0  0  0  0  0  0  0  0  0  0
  -23.0472   17.7104  137.0497 C   0  0  0  0  0  0  0  0  0  0  0  0
  -21.7743   17.1699  137.5911 C   0  0  0  0  0  0  0  0  0  0  0  0
  -24.1559   17.8674  137.8640 C   0  0  0  0  0  0  0  0  0  0  0  0
  -24.2914   18.5501  135.2441 C   0  0  0  0  0  0  0  0  0  0  0  0
  -25.4115   18.7143  136.0441 C   0  0  0  0  0  0  0  0  0  0  0  0
  -25.3179   18.3611  137.3685 C   0  0  0  0  0  0  0  0  0  0  0  0
  -26.4534   18.5085  138.2574 C   0  0  0  0  0  0  0  0  0  0  0  0
  -26.4403   18.6461  139.5858 N   0  0  0  0  0  0  0  0  0  0  0  0
  -27.6962   18.7522  140.0218 N   0  0  0  0  0  0  0  0  0  0  0  0
  -28.4700   18.6803  138.9721 N   0  0  0  0  0  0  0  0  0  0  0  0
  -27.7328   18.5304  137.8746 N   0  0  0  0  0  0  0  0  0  0  0  0
  1  2  1  0
  2  3  2  0
  2  4  1  0
  4  5  2  0
  4  6  1  0
  5 11  1  0
  6  7  1  0
  6  8  1  0
  8  9  2  0
  8 10  1  0
 10 11  2  0
 11 12  1  0
 12 13  2  0
 12 16  1  0
 13 14  1  0
 13 15  1  0
 15 18  2  0
 16 17  2  0
 17 18  1  0
 18 19  1  0
 19 20  2  0
 19 23  1  0
 20 21  1  0
 21 22  2  0
 22 23  1  0
M  CHG  1   1  -1
M  END
$$$$
