
     RDKit          3D

 23 25  0  0  0  0  0  0  0  0999 V2000
  -21.8367   19.3595  132.4324 O   0  0  0  0  0  1  0  0  0  0  0  0
  -20.8867   18.3789  132.4868 C   0  0  0  0  0  0  0  0  0  0  0  0
  -20.1382   18.1463  131.5280 O   0  0  0  0  0  0  0  0  0  0  0  0
  -20.7573   17.5790  133.7303 C   0  0  0  0  0  0  0  0  0  0  0  0
  -21.6342   17.7004  134.6372 N   0  0  0  0  0  0  0  0  0  0  0  0
  -19.6156   16.6677  133.8764 C   0  0  0  0  0  0  0  0  0  0  0  0
  -18.3930   17.3636  133.8322 O   0  0  0  0  0  0  0  0  0  0  0  0
  -19.6309   15.9539  135.1532 C   0  0  0  0  0  0  0  0  0  0  0  0
  -18.6909   15.1148  135.4299 O   0  0  0  0  0  0  0  0  0  0  0  0
  -20.6902   16.1698  136.1267 C   0  0  0  0  0  0  0  0  0  0  0  0
  -21.6782   17.0241  135.8846 C   0  0  0  0  0  0  0  0  0  0  0  0
  -22.7502   17.2568  136.8449 C   0  0  0  0  0  0  0  0  0  0  0  0
  -22.8840   18.4655  137.5060 C   0  0  0  0  0  0  0  0  0  0  0  0
  -21.9007   19.5398  137.2160 C   0  0  0  0  0  0  0  0  0  0  0  0
  -23.9091   18.6667  138.4146 C   0  0  0  0  0  0  0  0  0  0  0  0
  -23.6779   16.2864  137.1383 C   0  0  0  0  0  0  0  0  0  0  0  0
  -24.7106   16.4698  138.0447 C   0  0  0  0  0  0  0  0  0  0  0  0
  -24.8066   17.6848  138.6787 C   0  0  0  0  0  0  0  0  0  0  0  0
  -25.8637   17.9396  139.6373 C   0  0  0  0  0  0  0  0  0  0  0  0
  -26.3011   17.1321  140.6071 N   0  0  0  0  0  0  0  0  0  0  0  0
  -27.2865   17.7427  141.2665 N   0  0  0  0  0  0  0  0  0  0  0  0
  -27.4508   18.9113  140.7069 N   0  0  0  0  0  0  0  0  0  0  0  0
  -26.5898   19.0587  139.7032 N   0  0  0  0  0  0  0  0  0  0  0  0
  1  2  1  0
  2  3  2  0
  2  4  1  0
  4  5  2  0
  4  6  1  0
  5 11  1  0
  6  7  1  0
  6  8  1  0
  8  9  2  0
  8 10  1  0
 10 11  2  0
 11 12  1  0
 12 13  2  0
 12 16  1  0
 13 14  1  0
 13 15  1  0
 15 18  2  0
 16 17  2  0
 17 18  1  0
 18 19  1  0
 19 20  2  0
 19 23  1  0
 20 21  1  0
 21 22  2  0
 22 23  1  0
M  CHG  1   1  -1
M  END
$$$$
