
     RDKit          3D

 23 25  0  0  0  0  0  0  0  0999 V2000
  -18.0253   16.5194  136.3525 O   0  0  0  0  0  1  0  0  0  0  0  0
  -18.0788   16.8454  135.0267 C   0  0  0  0  0  0  0  0  0  0  0  0
  -17.0581   16.8866  134.3265 O   0  0  0  0  0  0  0  0  0  0  0  0
  -19.3977   17.1560  134.4210 C   0  0  0  0  0  0  0  0  0  0  0  0
  -20.4027   17.3150  135.1766 N   0  0  0  0  0  0  0  0  0  0  0  0
  -19.5027   17.2709  132.9611 C   0  0  0  0  0  0  0  0  0  0  0  0
  -19.1498   16.0667  132.3237 O   0  0  0  0  0  0  0  0  0  0  0  0
  -20.8635   17.5795  132.5219 C   0  0  0  0  0  0  0  0  0  0  0  0
  -21.1165   17.7120  131.2638 O   0  0  0  0  0  0  0  0  0  0  0  0
  -21.9476   17.7419  133.4784 C   0  0  0  0  0  0  0  0  0  0  0  0
  -21.7334   17.6145  134.7833 C   0  0  0  0  0  0  0  0  0  0  0  0
  -22.8039   17.7728  135.7602 C   0  0  0  0  0  0  0  0  0  0  0  0
  -23.0406   16.8234  136.7392 C   0  0  0  0  0  0  0  0  0  0  0  0
  -22.1712   15.6201  136.7786 C   0  0  0  0  0  0  0  0  0  0  0  0
  -24.0625   16.9922  137.6580 C   0  0  0  0  0  0  0  0  0  0  0  0
  -23.6279   18.8725  135.7544 C   0  0  0  0  0  0  0  0  0  0  0  0
  -24.6556   19.0584  136.6659 C   0  0  0  0  0  0  0  0  0  0  0  0
  -24.8559   18.0915  137.6210 C   0  0  0  0  0  0  0  0  0  0  0  0
  -25.9138   18.2268  138.6028 C   0  0  0  0  0  0  0  0  0  0  0  0
  -26.9031   19.1238  138.6215 N   0  0  0  0  0  0  0  0  0  0  0  0
  -27.6638   18.9061  139.6951 N   0  0  0  0  0  0  0  0  0  0  0  0
  -27.1462   17.8871  140.3270 N   0  0  0  0  0  0  0  0  0  0  0  0
  -26.0700   17.4499  139.6780 N   0  0  0  0  0  0  0  0  0  0  0  0
  1  2  1  0
  2  3  2  0
  2  4  1  0
  4  5  2  0
  4  6  1  0
  5 11  1  0
  6  7  1  0
  6  8  1  0
  8  9  2  0
  8 10  1  0
 10 11  2  0
 11 12  1  0
 12 13  2  0
 12 16  1  0
 13 14  1  0
 13 15  1  0
 15 18  2  0
 16 17  2  0
 17 18  1  0
 18 19  1  0
 19 20  2  0
 19 23  1  0
 20 21  1  0
 21 22  2  0
 22 23  1  0
M  CHG  1   1  -1
M  END
$$$$
