
     RDKit          3D

 23 25  0  0  0  0  0  0  0  0999 V2000
  -19.8322   17.9316  131.2997 O   0  0  0  0  0  1  0  0  0  0  0  0
  -20.7907   18.1552  132.2474 C   0  0  0  0  0  0  0  0  0  0  0  0
  -21.6893   18.9903  132.0775 O   0  0  0  0  0  0  0  0  0  0  0  0
  -20.7445   17.3726  133.5075 C   0  0  0  0  0  0  0  0  0  0  0  0
  -21.6481   17.5497  134.3785 N   0  0  0  0  0  0  0  0  0  0  0  0
  -19.6520   16.4132  133.7116 C   0  0  0  0  0  0  0  0  0  0  0  0
  -18.3980   17.0522  133.7027 O   0  0  0  0  0  0  0  0  0  0  0  0
  -19.7476   15.7238  134.9983 C   0  0  0  0  0  0  0  0  0  0  0  0
  -18.8581   14.8481  135.3239 O   0  0  0  0  0  0  0  0  0  0  0  0
  -20.8314   16.0047  135.9273 C   0  0  0  0  0  0  0  0  0  0  0  0
  -21.7695   16.8985  135.6340 C   0  0  0  0  0  0  0  0  0  0  0  0
  -22.8646   17.1965  136.5490 C   0  0  0  0  0  0  0  0  0  0  0  0
  -22.6339   17.6728  137.8280 C   0  0  0  0  0  0  0  0  0  0  0  0
  -21.2281   17.8788  138.2601 C   0  0  0  0  0  0  0  0  0  0  0  0
  -23.6878   17.9499  138.6821 C   0  0  0  0  0  0  0  0  0  0  0  0
  -24.1773   17.0183  136.1839 C   0  0  0  0  0  0  0  0  0  0  0  0
  -25.2450   17.2902  137.0252 C   0  0  0  0  0  0  0  0  0  0  0  0
  -24.9712   17.7614  138.2863 C   0  0  0  0  0  0  0  0  0  0  0  0
  -26.0433   18.0647  139.2137 C   0  0  0  0  0  0  0  0  0  0  0  0
  -27.2928   18.4387  138.9261 N   0  0  0  0  0  0  0  0  0  0  0  0
  -27.9627   18.6198  140.0650 N   0  0  0  0  0  0  0  0  0  0  0  0
  -27.1328   18.3597  141.0393 N   0  0  0  0  0  0  0  0  0  0  0  0
  -25.9462   18.0160  140.5449 N   0  0  0  0  0  0  0  0  0  0  0  0
  1  2  1  0
  2  3  2  0
  2  4  1  0
  4  5  2  0
  4  6  1  0
  5 11  1  0
  6  7  1  0
  6  8  1  0
  8  9  2  0
  8 10  1  0
 10 11  2  0
 11 12  1  0
 12 13  2  0
 12 16  1  0
 13 14  1  0
 13 15  1  0
 15 18  2  0
 16 17  2  0
 17 18  1  0
 18 19  1  0
 19 20  2  0
 19 23  1  0
 20 21  1  0
 21 22  2  0
 22 23  1  0
M  CHG  1   1  -1
M  END
$$$$
