
     RDKit          3D

 23 25  0  0  0  0  0  0  0  0999 V2000
  -17.0663   16.7940  134.9423 O   0  0  0  0  0  1  0  0  0  0  0  0
  -18.2434   16.6776  135.6262 C   0  0  0  0  0  0  0  0  0  0  0  0
  -18.2927   16.1606  136.7505 O   0  0  0  0  0  0  0  0  0  0  0  0
  -19.4875   17.1866  134.9971 C   0  0  0  0  0  0  0  0  0  0  0  0
  -20.5322   17.3093  135.7042 N   0  0  0  0  0  0  0  0  0  0  0  0
  -19.4747   17.5348  133.5708 C   0  0  0  0  0  0  0  0  0  0  0  0
  -19.1627   16.4190  132.7718 O   0  0  0  0  0  0  0  0  0  0  0  0
  -20.7730   18.0195  133.1028 C   0  0  0  0  0  0  0  0  0  0  0  0
  -20.9212   18.3660  131.8690 O   0  0  0  0  0  0  0  0  0  0  0  0
  -21.9110   18.1210  134.0035 C   0  0  0  0  0  0  0  0  0  0  0  0
  -21.8047   17.7754  135.2818 C   0  0  0  0  0  0  0  0  0  0  0  0
  -22.9310   17.8685  136.2027 C   0  0  0  0  0  0  0  0  0  0  0  0
  -23.3917   19.0886  136.6664 C   0  0  0  0  0  0  0  0  0  0  0  0
  -22.7080   20.3225  136.2022 C   0  0  0  0  0  0  0  0  0  0  0  0
  -24.4631   19.1559  137.5408 C   0  0  0  0  0  0  0  0  0  0  0  0
  -23.5878   16.7487  136.6534 C   0  0  0  0  0  0  0  0  0  0  0  0
  -24.6618   16.7967  137.5286 C   0  0  0  0  0  0  0  0  0  0  0  0
  -25.0868   18.0284  137.9641 C   0  0  0  0  0  0  0  0  0  0  0  0
  -26.2043   18.1462  138.8798 C   0  0  0  0  0  0  0  0  0  0  0  0
  -26.5602   17.3000  139.8499 N   0  0  0  0  0  0  0  0  0  0  0  0
  -27.6455   17.7756  140.4619 N   0  0  0  0  0  0  0  0  0  0  0  0
  -27.9511   18.9007  139.8731 N   0  0  0  0  0  0  0  0  0  0  0  0
  -27.0822   19.1527  138.8974 N   0  0  0  0  0  0  0  0  0  0  0  0
  1  2  1  0
  2  3  2  0
  2  4  1  0
  4  5  2  0
  4  6  1  0
  5 11  1  0
  6  7  1  0
  6  8  1  0
  8  9  2  0
  8 10  1  0
 10 11  2  0
 11 12  1  0
 12 13  2  0
 12 16  1  0
 13 14  1  0
 13 15  1  0
 15 18  2  0
 16 17  2  0
 17 18  1  0
 18 19  1  0
 19 20  2  0
 19 23  1  0
 20 21  1  0
 21 22  2  0
 22 23  1  0
M  CHG  1   1  -1
M  END
$$$$
