
     RDKit          3D

 23 25  0  0  0  0  0  0  0  0999 V2000
  -18.3681   16.0854  136.4806 O   0  0  0  0  0  1  0  0  0  0  0  0
  -18.4088   16.5992  135.2152 C   0  0  0  0  0  0  0  0  0  0  0  0
  -17.3905   16.6825  134.5153 O   0  0  0  0  0  0  0  0  0  0  0  0
  -19.7104   17.0659  134.6761 C   0  0  0  0  0  0  0  0  0  0  0  0
  -20.7036   17.1635  135.4573 N   0  0  0  0  0  0  0  0  0  0  0  0
  -19.8125   17.4025  133.2507 C   0  0  0  0  0  0  0  0  0  0  0  0
  -19.5265   16.2897  132.4377 O   0  0  0  0  0  0  0  0  0  0  0  0
  -21.1557   17.8447  132.8764 C   0  0  0  0  0  0  0  0  0  0  0  0
  -21.4042   18.1764  131.6547 O   0  0  0  0  0  0  0  0  0  0  0  0
  -22.2272   17.9199  133.8576 C   0  0  0  0  0  0  0  0  0  0  0  0
  -22.0172   17.5882  135.1267 C   0  0  0  0  0  0  0  0  0  0  0  0
  -23.0753   17.6556  136.1274 C   0  0  0  0  0  0  0  0  0  0  0  0
  -23.3987   16.5661  136.9175 C   0  0  0  0  0  0  0  0  0  0  0  0
  -22.6370   15.3058  136.7258 C   0  0  0  0  0  0  0  0  0  0  0  0
  -24.4072   16.6502  137.8625 C   0  0  0  0  0  0  0  0  0  0  0  0
  -23.8009   18.8043  136.3326 C   0  0  0  0  0  0  0  0  0  0  0  0
  -24.8136   18.9071  137.2736 C   0  0  0  0  0  0  0  0  0  0  0  0
  -25.1022   17.8018  138.0367 C   0  0  0  0  0  0  0  0  0  0  0  0
  -26.1497   17.8446  139.0377 C   0  0  0  0  0  0  0  0  0  0  0  0
  -27.3316   18.4617  138.9596 N   0  0  0  0  0  0  0  0  0  0  0  0
  -28.0022   18.2566  140.0940 N   0  0  0  0  0  0  0  0  0  0  0  0
  -27.2396   17.5220  140.8585 N   0  0  0  0  0  0  0  0  0  0  0  0
  -26.0953   17.2541  140.2346 N   0  0  0  0  0  0  0  0  0  0  0  0
  1  2  1  0
  2  3  2  0
  2  4  1  0
  4  5  2  0
  4  6  1  0
  5 11  1  0
  6  7  1  0
  6  8  1  0
  8  9  2  0
  8 10  1  0
 10 11  2  0
 11 12  1  0
 12 13  2  0
 12 16  1  0
 13 14  1  0
 13 15  1  0
 15 18  2  0
 16 17  2  0
 17 18  1  0
 18 19  1  0
 19 20  2  0
 19 23  1  0
 20 21  1  0
 21 22  2  0
 22 23  1  0
M  CHG  1   1  -1
M  END
$$$$
