
     RDKit          3D

 23 25  0  0  0  0  0  0  0  0999 V2000
  -17.0441   17.1504  134.2238 O   0  0  0  0  0  1  0  0  0  0  0  0
  -18.1129   16.9405  135.0486 C   0  0  0  0  0  0  0  0  0  0  0  0
  -17.9747   16.4563  136.1801 O   0  0  0  0  0  0  0  0  0  0  0  0
  -19.4685   17.3053  134.5668 C   0  0  0  0  0  0  0  0  0  0  0  0
  -20.4317   17.3277  135.3903 N   0  0  0  0  0  0  0  0  0  0  0  0
  -19.6574   17.6307  133.1477 C   0  0  0  0  0  0  0  0  0  0  0  0
  -19.3223   16.5419  132.3213 O   0  0  0  0  0  0  0  0  0  0  0  0
  -21.0454   17.9681  132.8324 C   0  0  0  0  0  0  0  0  0  0  0  0
  -21.3710   18.2778  131.6230 O   0  0  0  0  0  0  0  0  0  0  0  0
  -22.0763   17.9626  133.8590 C   0  0  0  0  0  0  0  0  0  0  0  0
  -21.7870   17.6500  135.1172 C   0  0  0  0  0  0  0  0  0  0  0  0
  -22.8031   17.6378  136.1627 C   0  0  0  0  0  0  0  0  0  0  0  0
  -23.6189   18.7313  136.3960 C   0  0  0  0  0  0  0  0  0  0  0  0
  -23.4391   19.9380  135.5492 C   0  0  0  0  0  0  0  0  0  0  0  0
  -24.5782   18.6999  137.3938 C   0  0  0  0  0  0  0  0  0  0  0  0
  -22.9980   16.5395  136.9652 C   0  0  0  0  0  0  0  0  0  0  0  0
  -23.9530   16.4899  137.9687 C   0  0  0  0  0  0  0  0  0  0  0  0
  -24.7416   17.5973  138.1665 C   0  0  0  0  0  0  0  0  0  0  0  0
  -25.7584   17.6088  139.1996 C   0  0  0  0  0  0  0  0  0  0  0  0
  -26.1762   16.5846  139.9481 N   0  0  0  0  0  0  0  0  0  0  0  0
  -27.1252   17.0158  140.7799 N   0  0  0  0  0  0  0  0  0  0  0  0
  -27.2869   18.2901  140.5437 N   0  0  0  0  0  0  0  0  0  0  0  0
  -26.4598   18.6809  139.5774 N   0  0  0  0  0  0  0  0  0  0  0  0
  1  2  1  0
  2  3  2  0
  2  4  1  0
  4  5  2  0
  4  6  1  0
  5 11  1  0
  6  7  1  0
  6  8  1  0
  8  9  2  0
  8 10  1  0
 10 11  2  0
 11 12  1  0
 12 13  2  0
 12 16  1  0
 13 14  1  0
 13 15  1  0
 15 18  2  0
 16 17  2  0
 17 18  1  0
 18 19  1  0
 19 20  2  0
 19 23  1  0
 20 21  1  0
 21 22  2  0
 22 23  1  0
M  CHG  1   1  -1
M  END
$$$$
