
     RDKit          3D

 23 25  0  0  0  0  0  0  0  0999 V2000
  -20.2214   18.1077  131.4680 O   0  0  0  0  0  1  0  0  0  0  0  0
  -20.9166   18.4645  132.5889 C   0  0  0  0  0  0  0  0  0  0  0  0
  -21.6400   19.4696  132.6117 O   0  0  0  0  0  0  0  0  0  0  0  0
  -20.7948   17.6200  133.8032 C   0  0  0  0  0  0  0  0  0  0  0  0
  -21.6459   17.7489  134.7335 N   0  0  0  0  0  0  0  0  0  0  0  0
  -19.6905   16.6568  133.8942 C   0  0  0  0  0  0  0  0  0  0  0  0
  -18.4403   17.3014  133.8438 O   0  0  0  0  0  0  0  0  0  0  0  0
  -19.7089   15.9033  135.1479 C   0  0  0  0  0  0  0  0  0  0  0  0
  -18.8001   15.0166  135.3763 O   0  0  0  0  0  0  0  0  0  0  0  0
  -20.7366   16.1321  136.1519 C   0  0  0  0  0  0  0  0  0  0  0  0
  -21.6919   17.0349  135.9596 C   0  0  0  0  0  0  0  0  0  0  0  0
  -22.7318   17.2814  136.9512 C   0  0  0  0  0  0  0  0  0  0  0  0
  -24.0751   17.1534  136.6427 C   0  0  0  0  0  0  0  0  0  0  0  0
  -24.4459   16.7538  135.2613 C   0  0  0  0  0  0  0  0  0  0  0  0
  -25.0478   17.3920  137.5987 C   0  0  0  0  0  0  0  0  0  0  0  0
  -22.4265   17.6525  138.2385 C   0  0  0  0  0  0  0  0  0  0  0  0
  -23.3864   17.8955  139.2087 C   0  0  0  0  0  0  0  0  0  0  0  0
  -24.7080   17.7568  138.8600 C   0  0  0  0  0  0  0  0  0  0  0  0
  -25.7596   17.9965  139.8285 C   0  0  0  0  0  0  0  0  0  0  0  0
  -27.0774   17.8653  139.6551 N   0  0  0  0  0  0  0  0  0  0  0  0
  -27.6969   18.1829  140.7926 N   0  0  0  0  0  0  0  0  0  0  0  0
  -26.7689   18.5051  141.6533 N   0  0  0  0  0  0  0  0  0  0  0  0
  -25.5692   18.3994  141.0877 N   0  0  0  0  0  0  0  0  0  0  0  0
  1  2  1  0
  2  3  2  0
  2  4  1  0
  4  5  2  0
  4  6  1  0
  5 11  1  0
  6  7  1  0
  6  8  1  0
  8  9  2  0
  8 10  1  0
 10 11  2  0
 11 12  1  0
 12 13  2  0
 12 16  1  0
 13 14  1  0
 13 15  1  0
 15 18  2  0
 16 17  2  0
 17 18  1  0
 18 19  1  0
 19 20  2  0
 19 23  1  0
 20 21  1  0
 21 22  2  0
 22 23  1  0
M  CHG  1   1  -1
M  END
$$$$
