
     RDKit          3D

 23 25  0  0  0  0  0  0  0  0999 V2000
  -17.3448   16.0849  134.5681 O   0  0  0  0  0  1  0  0  0  0  0  0
  -18.4562   16.3197  135.3275 C   0  0  0  0  0  0  0  0  0  0  0  0
  -18.4936   16.0292  136.5308 O   0  0  0  0  0  0  0  0  0  0  0  0
  -19.6420   16.9385  134.6844 C   0  0  0  0  0  0  0  0  0  0  0  0
  -20.6888   17.1302  135.3729 N   0  0  0  0  0  0  0  0  0  0  0  0
  -19.5707   17.3123  133.2664 C   0  0  0  0  0  0  0  0  0  0  0  0
  -19.3310   16.1909  132.4503 O   0  0  0  0  0  0  0  0  0  0  0  0
  -20.8161   17.9080  132.7828 C   0  0  0  0  0  0  0  0  0  0  0  0
  -20.9095   18.2893  131.5539 O   0  0  0  0  0  0  0  0  0  0  0  0
  -21.9617   18.0823  133.6624 C   0  0  0  0  0  0  0  0  0  0  0  0
  -21.9109   17.7045  134.9350 C   0  0  0  0  0  0  0  0  0  0  0  0
  -23.0460   17.8691  135.8349 C   0  0  0  0  0  0  0  0  0  0  0  0
  -23.0845   17.2567  137.0756 C   0  0  0  0  0  0  0  0  0  0  0  0
  -21.9307   16.4147  137.4819 C   0  0  0  0  0  0  0  0  0  0  0  0
  -24.1719   17.4255  137.9160 C   0  0  0  0  0  0  0  0  0  0  0  0
  -24.1307   18.6402  135.4930 C   0  0  0  0  0  0  0  0  0  0  0  0
  -25.2278   18.8207  136.3210 C   0  0  0  0  0  0  0  0  0  0  0  0
  -25.2251   18.1947  137.5439 C   0  0  0  0  0  0  0  0  0  0  0  0
  -26.3422   18.3433  138.4556 C   0  0  0  0  0  0  0  0  0  0  0  0
  -27.5531   18.8413  138.1918 N   0  0  0  0  0  0  0  0  0  0  0  0
  -28.2885   18.8016  139.3037 N   0  0  0  0  0  0  0  0  0  0  0  0
  -27.5364   18.2850  140.2382 N   0  0  0  0  0  0  0  0  0  0  0  0
  -26.3354   17.9941  139.7448 N   0  0  0  0  0  0  0  0  0  0  0  0
  1  2  1  0
  2  3  2  0
  2  4  1  0
  4  5  2  0
  4  6  1  0
  5 11  1  0
  6  7  1  0
  6  8  1  0
  8  9  2  0
  8 10  1  0
 10 11  2  0
 11 12  1  0
 12 13  2  0
 12 16  1  0
 13 14  1  0
 13 15  1  0
 15 18  2  0
 16 17  2  0
 17 18  1  0
 18 19  1  0
 19 20  2  0
 19 23  1  0
 20 21  1  0
 21 22  2  0
 22 23  1  0
M  CHG  1   1  -1
M  END
$$$$
