
     RDKit          3D

 23 25  0  0  0  0  0  0  0  0999 V2000
  -18.5677   16.0001  136.5062 O   0  0  0  0  0  1  0  0  0  0  0  0
  -18.5390   16.4430  135.2140 C   0  0  0  0  0  0  0  0  0  0  0  0
  -17.5292   16.3196  134.5077 O   0  0  0  0  0  0  0  0  0  0  0  0
  -19.7531   17.0863  134.6529 C   0  0  0  0  0  0  0  0  0  0  0  0
  -20.7714   17.2353  135.3927 N   0  0  0  0  0  0  0  0  0  0  0  0
  -19.7420   17.5331  133.2545 C   0  0  0  0  0  0  0  0  0  0  0  0
  -19.5312   16.4568  132.3723 O   0  0  0  0  0  0  0  0  0  0  0  0
  -21.0090   18.1447  132.8538 C   0  0  0  0  0  0  0  0  0  0  0  0
  -21.1547   18.5881  131.6511 O   0  0  0  0  0  0  0  0  0  0  0  0
  -22.1181   18.2658  133.7874 C   0  0  0  0  0  0  0  0  0  0  0  0
  -22.0131   17.8233  135.0356 C   0  0  0  0  0  0  0  0  0  0  0  0
  -23.1108   17.9339  135.9886 C   0  0  0  0  0  0  0  0  0  0  0  0
  -22.9794   18.6444  137.1692 C   0  0  0  0  0  0  0  0  0  0  0  0
  -21.6796   19.3036  137.4539 C   0  0  0  0  0  0  0  0  0  0  0  0
  -24.0340   18.7376  138.0615 C   0  0  0  0  0  0  0  0  0  0  0  0
  -24.3273   17.3375  135.7589 C   0  0  0  0  0  0  0  0  0  0  0  0
  -25.3940   17.4200  136.6403 C   0  0  0  0  0  0  0  0  0  0  0  0
  -25.2207   18.1352  137.8004 C   0  0  0  0  0  0  0  0  0  0  0  0
  -26.2974   18.2592  138.7631 C   0  0  0  0  0  0  0  0  0  0  0  0
  -27.4374   17.5648  138.8099 N   0  0  0  0  0  0  0  0  0  0  0  0
  -28.1572   17.9852  139.8509 N   0  0  0  0  0  0  0  0  0  0  0  0
  -27.4659   18.9266  140.4353 N   0  0  0  0  0  0  0  0  0  0  0  0
  -26.3188   19.1155  139.7879 N   0  0  0  0  0  0  0  0  0  0  0  0
  1  2  1  0
  2  3  2  0
  2  4  1  0
  4  5  2  0
  4  6  1  0
  5 11  1  0
  6  7  1  0
  6  8  1  0
  8  9  2  0
  8 10  1  0
 10 11  2  0
 11 12  1  0
 12 13  2  0
 12 16  1  0
 13 14  1  0
 13 15  1  0
 15 18  2  0
 16 17  2  0
 17 18  1  0
 18 19  1  0
 19 20  2  0
 19 23  1  0
 20 21  1  0
 21 22  2  0
 22 23  1  0
M  CHG  1   1  -1
M  END
$$$$
