
     RDKit          3D

 23 25  0  0  0  0  0  0  0  0999 V2000
  -22.1639   19.5527  132.4689 O   0  0  0  0  0  1  0  0  0  0  0  0
  -21.1192   18.6916  132.2842 C   0  0  0  0  0  0  0  0  0  0  0  0
  -20.5154   18.6253  131.2050 O   0  0  0  0  0  0  0  0  0  0  0  0
  -20.7063   17.8187  133.4113 C   0  0  0  0  0  0  0  0  0  0  0  0
  -21.3784   17.8372  134.4857 N   0  0  0  0  0  0  0  0  0  0  0  0
  -19.5289   16.9563  133.2512 C   0  0  0  0  0  0  0  0  0  0  0  0
  -18.3668   17.7123  133.0086 O   0  0  0  0  0  0  0  0  0  0  0  0
  -19.2534   16.1601  134.4470 C   0  0  0  0  0  0  0  0  0  0  0  0
  -18.2484   15.3513  134.4611 O   0  0  0  0  0  0  0  0  0  0  0  0
  -20.0931   16.2596  135.6309 C   0  0  0  0  0  0  0  0  0  0  0  0
  -21.1383   17.0789  135.6614 C   0  0  0  0  0  0  0  0  0  0  0  0
  -21.9937   17.1953  136.8363 C   0  0  0  0  0  0  0  0  0  0  0  0
  -23.3437   16.8942  136.7849 C   0  0  0  0  0  0  0  0  0  0  0  0
  -23.9163   16.4428  135.4912 C   0  0  0  0  0  0  0  0  0  0  0  0
  -24.1394   17.0112  137.9120 C   0  0  0  0  0  0  0  0  0  0  0  0
  -21.4991   17.6095  138.0495 C   0  0  0  0  0  0  0  0  0  0  0  0
  -22.2803   17.7325  139.1881 C   0  0  0  0  0  0  0  0  0  0  0  0
  -23.6155   17.4235  139.0930 C   0  0  0  0  0  0  0  0  0  0  0  0
  -24.4857   17.5315  140.2472 C   0  0  0  0  0  0  0  0  0  0  0  0
  -24.1356   17.7346  141.5200 N   0  0  0  0  0  0  0  0  0  0  0  0
  -25.2372   17.7706  142.2710 N   0  0  0  0  0  0  0  0  0  0  0  0
  -26.2508   17.5913  141.4671 N   0  0  0  0  0  0  0  0  0  0  0  0
  -25.8181   17.4417  140.2177 N   0  0  0  0  0  0  0  0  0  0  0  0
  1  2  1  0
  2  3  2  0
  2  4  1  0
  4  5  2  0
  4  6  1  0
  5 11  1  0
  6  7  1  0
  6  8  1  0
  8  9  2  0
  8 10  1  0
 10 11  2  0
 11 12  1  0
 12 13  2  0
 12 16  1  0
 13 14  1  0
 13 15  1  0
 15 18  2  0
 16 17  2  0
 17 18  1  0
 18 19  1  0
 19 20  2  0
 19 23  1  0
 20 21  1  0
 21 22  2  0
 22 23  1  0
M  CHG  1   1  -1
M  END
$$$$
