
     RDKit          3D

 14 14  0  0  0  0  0  0  0  0999 V2000
  -23.1469   18.0376  -11.2220 C   0  0  0  0  0  0  0  0  0  0  0  0
  -23.2436   17.0059  -10.3295 C   0  0  0  0  0  0  0  0  0  0  0  0
  -23.1613   15.7005  -10.8423 C   0  0  0  0  0  0  0  0  0  0  0  0
  -22.9766   17.8220  -12.5645 C   0  0  0  0  0  0  0  0  0  0  0  0
  -22.9040   16.5272  -13.0000 C   0  0  0  0  0  0  0  0  0  0  0  0
  -22.9925   15.4003  -12.1630 C   0  0  0  0  0  0  0  0  0  0  0  0
  -22.5130   18.6953  -14.8189 C   0  0  0  0  0  0  0  0  0  0  0  0
  -22.9065   14.0799  -12.7037 C   0  0  0  0  0  0  0  0  0  0  0  0
  -22.7271   13.5328  -13.8375 C   0  0  0  0  0  0  0  0  0  0  0  0
  -22.4326   12.2655  -14.3971 C   0  0  0  0  0  0  0  0  0  0  0  0
  -22.3270   12.1587  -15.7034 O   0  0  0  0  0  0  0  0  0  0  0  0
  -22.2261   11.0610  -13.7865 O   0  0  0  0  0  0  0  0  0  0  0  0
  -23.2188   19.3506  -10.7935 O   0  0  0  0  0  0  0  0  0  0  0  0
  -22.8760   18.8410  -13.4869 O   0  0  0  0  0  0  0  0  0  0  0  0
  1  2  2  0
  1  4  1  0
  1 13  1  0
  2  3  1  0
  3  6  2  0
  4  5  2  0
  4 14  1  0
  5  6  1  0
  6  8  1  0
 14  7  1  0
  8  9  2  0
  9 10  1  0
 10 11  2  0
 10 12  1  0
M  END
$$$$
