
     RDKit          3D

 14 14  0  0  0  0  0  0  0  0999 V2000
  -23.1094   18.0389  -11.2600 C   0  0  0  0  0  0  0  0  0  0  0  0
  -23.2846   17.0512  -10.3306 C   0  0  0  0  0  0  0  0  0  0  0  0
  -23.1623   15.7227  -10.7711 C   0  0  0  0  0  0  0  0  0  0  0  0
  -22.8256   17.7592  -12.5712 C   0  0  0  0  0  0  0  0  0  0  0  0
  -22.7196   16.4451  -12.9362 C   0  0  0  0  0  0  0  0  0  0  0  0
  -22.8821   15.3596  -12.0566 C   0  0  0  0  0  0  0  0  0  0  0  0
  -23.0006   18.6296  -14.8673 C   0  0  0  0  0  0  0  0  0  0  0  0
  -22.7536   14.0149  -12.5240 C   0  0  0  0  0  0  0  0  0  0  0  0
  -22.7338   13.3987  -13.6362 C   0  0  0  0  0  0  0  0  0  0  0  0
  -22.2951   12.1710  -14.1896 C   0  0  0  0  0  0  0  0  0  0  0  0
  -22.2390   12.0498  -15.4977 O   0  0  0  0  0  0  0  0  0  0  0  0
  -21.8955   11.0204  -13.5711 O   0  0  0  0  0  0  0  0  0  0  0  0
  -23.2142   19.3709  -10.9029 O   0  0  0  0  0  0  0  0  0  0  0  0
  -22.6440   18.7328  -13.5295 O   0  0  0  0  0  0  0  0  0  0  0  0
  1  2  2  0
  1  4  1  0
  1 13  1  0
  2  3  1  0
  3  6  2  0
  4  5  2  0
  4 14  1  0
  5  6  1  0
  6  8  1  0
 14  7  1  0
  8  9  2  0
  9 10  1  0
 10 11  2  0
 10 12  1  0
M  END
$$$$
