
     RDKit          3D

 14 14  0  0  0  0  0  0  0  0999 V2000
  -22.8813   17.7388  -10.9504 C   0  0  0  0  0  0  0  0  0  0  0  0
  -22.8832   16.5180  -10.3341 C   0  0  0  0  0  0  0  0  0  0  0  0
  -22.8071   15.3811  -11.1560 C   0  0  0  0  0  0  0  0  0  0  0  0
  -22.8087   17.8635  -12.3131 C   0  0  0  0  0  0  0  0  0  0  0  0
  -22.7368   16.7176  -13.0570 C   0  0  0  0  0  0  0  0  0  0  0  0
  -22.7322   15.4184  -12.5183 C   0  0  0  0  0  0  0  0  0  0  0  0
  -22.3747   19.3025  -14.2628 C   0  0  0  0  0  0  0  0  0  0  0  0
  -22.6543   14.2740  -13.3712 C   0  0  0  0  0  0  0  0  0  0  0  0
  -22.0750   13.1420  -13.3833 C   0  0  0  0  0  0  0  0  0  0  0  0
  -22.0397   11.9486  -14.1450 C   0  0  0  0  0  0  0  0  0  0  0  0
  -21.5828   10.8513  -13.5827 O   0  0  0  0  0  0  0  0  0  0  0  0
  -22.4180   11.7185  -15.4374 O   0  0  0  0  0  0  0  0  0  0  0  0
  -22.9536   18.9040  -10.2088 O   0  0  0  0  0  0  0  0  0  0  0  0
  -22.8050   19.0794  -12.9618 O   0  0  0  0  0  0  0  0  0  0  0  0
  1  2  2  0
  1  4  1  0
  1 13  1  0
  2  3  1  0
  3  6  2  0
  4  5  2  0
  4 14  1  0
  5  6  1  0
  6  8  1  0
 14  7  1  0
  8  9  2  0
  9 10  1  0
 10 11  2  0
 10 12  1  0
M  END
$$$$
