
     RDKit          3D

 14 14  0  0  0  0  0  0  0  0999 V2000
  -22.8842   17.9264  -11.2799 C   0  0  0  0  0  0  0  0  0  0  0  0
  -22.9763   16.7623  -10.5683 C   0  0  0  0  0  0  0  0  0  0  0  0
  -22.9803   15.5607  -11.2963 C   0  0  0  0  0  0  0  0  0  0  0  0
  -22.7987   17.9360  -12.6476 C   0  0  0  0  0  0  0  0  0  0  0  0
  -22.8077   16.7320  -13.2971 C   0  0  0  0  0  0  0  0  0  0  0  0
  -22.8989   15.4832  -12.6566 C   0  0  0  0  0  0  0  0  0  0  0  0
  -23.2003   20.3358  -13.0216 C   0  0  0  0  0  0  0  0  0  0  0  0
  -22.9014   14.2715  -13.4148 C   0  0  0  0  0  0  0  0  0  0  0  0
  -22.3065   13.1476  -13.4025 C   0  0  0  0  0  0  0  0  0  0  0  0
  -22.2588   11.9364  -14.1349 C   0  0  0  0  0  0  0  0  0  0  0  0
  -21.7337   10.8729  -13.5672 O   0  0  0  0  0  0  0  0  0  0  0  0
  -22.6861   11.6575  -15.4022 O   0  0  0  0  0  0  0  0  0  0  0  0
  -22.8742   19.1495  -10.6343 O   0  0  0  0  0  0  0  0  0  0  0  0
  -22.7050   19.0926  -13.3911 O   0  0  0  0  0  0  0  0  0  0  0  0
  1  2  2  0
  1  4  1  0
  1 13  1  0
  2  3  1  0
  3  6  2  0
  4  5  2  0
  4 14  1  0
  5  6  1  0
  6  8  1  0
 14  7  1  0
  8  9  2  0
  9 10  1  0
 10 11  2  0
 10 12  1  0
M  END
$$$$
