
     RDKit          3D

 14 14  0  0  0  0  0  0  0  0999 V2000
  -23.2868   18.2002  -11.3597 C   0  0  0  0  0  0  0  0  0  0  0  0
  -23.7577   17.0581  -10.7732 C   0  0  0  0  0  0  0  0  0  0  0  0
  -23.3532   15.8335  -11.3306 C   0  0  0  0  0  0  0  0  0  0  0  0
  -22.4536   18.1670  -12.4472 C   0  0  0  0  0  0  0  0  0  0  0  0
  -22.0969   16.9425  -12.9422 C   0  0  0  0  0  0  0  0  0  0  0  0
  -22.5273   15.7135  -12.4107 C   0  0  0  0  0  0  0  0  0  0  0  0
  -21.4834   19.3765  -14.3593 C   0  0  0  0  0  0  0  0  0  0  0  0
  -22.1047   14.4779  -12.9919 C   0  0  0  0  0  0  0  0  0  0  0  0
  -22.6369   13.4150  -13.4435 C   0  0  0  0  0  0  0  0  0  0  0  0
  -22.2654   12.1577  -13.9794 C   0  0  0  0  0  0  0  0  0  0  0  0
  -23.1165   11.5232  -14.7553 O   0  0  0  0  0  0  0  0  0  0  0  0
  -21.1117   11.4424  -13.8257 O   0  0  0  0  0  0  0  0  0  0  0  0
  -23.6404   19.4436  -10.8682 O   0  0  0  0  0  0  0  0  0  0  0  0
  -21.9635   19.3005  -13.0589 O   0  0  0  0  0  0  0  0  0  0  0  0
  1  2  2  0
  1  4  1  0
  1 13  1  0
  2  3  1  0
  3  6  2  0
  4  5  2  0
  4 14  1  0
  5  6  1  0
  6  8  1  0
 14  7  1  0
  8  9  2  0
  9 10  1  0
 10 11  2  0
 10 12  1  0
M  END
$$$$
