
     RDKit          3D

 14 14  0  0  0  0  0  0  0  0999 V2000
  -23.0310   17.7750  -11.1259 C   0  0  0  0  0  0  0  0  0  0  0  0
  -23.0843   16.6539  -10.3446 C   0  0  0  0  0  0  0  0  0  0  0  0
  -22.7542   15.4300  -10.9504 C   0  0  0  0  0  0  0  0  0  0  0  0
  -22.6720   17.7221  -12.4473 C   0  0  0  0  0  0  0  0  0  0  0  0
  -22.3622   16.4995  -12.9772 C   0  0  0  0  0  0  0  0  0  0  0  0
  -22.3870   15.2913  -12.2577 C   0  0  0  0  0  0  0  0  0  0  0  0
  -21.6613   19.0647  -14.2463 C   0  0  0  0  0  0  0  0  0  0  0  0
  -22.0478   14.0560  -12.8919 C   0  0  0  0  0  0  0  0  0  0  0  0
  -22.6479   13.0329  -13.3503 C   0  0  0  0  0  0  0  0  0  0  0  0
  -22.3756   11.8525  -14.0841 C   0  0  0  0  0  0  0  0  0  0  0  0
  -22.9423   11.6924  -15.2598 O   0  0  0  0  0  0  0  0  0  0  0  0
  -21.5819   10.7856  -13.7709 O   0  0  0  0  0  0  0  0  0  0  0  0
  -23.3420   19.0164  -10.6013 O   0  0  0  0  0  0  0  0  0  0  0  0
  -22.6095   18.8343  -13.2587 O   0  0  0  0  0  0  0  0  0  0  0  0
  1  2  2  0
  1  4  1  0
  1 13  1  0
  2  3  1  0
  3  6  2  0
  4  5  2  0
  4 14  1  0
  5  6  1  0
  6  8  1  0
 14  7  1  0
  8  9  2  0
  9 10  1  0
 10 11  2  0
 10 12  1  0
M  END
$$$$
