
     RDKit          3D

 14 14  0  0  0  0  0  0  0  0999 V2000
  -23.6460   17.9018  -11.2071 C   0  0  0  0  0  0  0  0  0  0  0  0
  -23.5808   16.6834  -10.5894 C   0  0  0  0  0  0  0  0  0  0  0  0
  -23.3083   15.5658  -11.3959 C   0  0  0  0  0  0  0  0  0  0  0  0
  -23.4555   18.0420  -12.5569 C   0  0  0  0  0  0  0  0  0  0  0  0
  -23.1937   16.9146  -13.2861 C   0  0  0  0  0  0  0  0  0  0  0  0
  -23.1065   15.6194  -12.7448 C   0  0  0  0  0  0  0  0  0  0  0  0
  -22.7596   19.6211  -14.3125 C   0  0  0  0  0  0  0  0  0  0  0  0
  -22.8283   14.4947  -13.5819 C   0  0  0  0  0  0  0  0  0  0  0  0
  -22.9839   13.2330  -13.5523 C   0  0  0  0  0  0  0  0  0  0  0  0
  -22.7206   12.0877  -14.3427 C   0  0  0  0  0  0  0  0  0  0  0  0
  -22.4930   10.9410  -13.7408 O   0  0  0  0  0  0  0  0  0  0  0  0
  -22.6568   11.9519  -15.7006 O   0  0  0  0  0  0  0  0  0  0  0  0
  -23.9100   19.0484  -10.4803 O   0  0  0  0  0  0  0  0  0  0  0  0
  -23.5151   19.2559  -13.2066 O   0  0  0  0  0  0  0  0  0  0  0  0
  1  2  2  0
  1  4  1  0
  1 13  1  0
  2  3  1  0
  3  6  2  0
  4  5  2  0
  4 14  1  0
  5  6  1  0
  6  8  1  0
 14  7  1  0
  8  9  2  0
  9 10  1  0
 10 11  2  0
 10 12  1  0
M  END
$$$$
