
     RDKit          3D

 14 14  0  0  0  0  0  0  0  0999 V2000
  -23.0431   17.9546  -11.3685 C   0  0  0  0  0  0  0  0  0  0  0  0
  -23.1071   16.9536  -10.4389 C   0  0  0  0  0  0  0  0  0  0  0  0
  -22.9198   15.6379  -10.8948 C   0  0  0  0  0  0  0  0  0  0  0  0
  -22.8066   17.6997  -12.6940 C   0  0  0  0  0  0  0  0  0  0  0  0
  -22.6327   16.3969  -13.0735 C   0  0  0  0  0  0  0  0  0  0  0  0
  -22.6801   15.2994  -12.1951 C   0  0  0  0  0  0  0  0  0  0  0  0
  -21.9223   19.8104  -13.6014 C   0  0  0  0  0  0  0  0  0  0  0  0
  -22.4870   13.9681  -12.6782 C   0  0  0  0  0  0  0  0  0  0  0  0
  -22.6674   13.3184  -13.7564 C   0  0  0  0  0  0  0  0  0  0  0  0
  -22.3867   12.0495  -14.3193 C   0  0  0  0  0  0  0  0  0  0  0  0
  -22.3920   11.9216  -15.6279 O   0  0  0  0  0  0  0  0  0  0  0  0
  -22.0937   10.8624  -13.7099 O   0  0  0  0  0  0  0  0  0  0  0  0
  -23.2172   19.2753  -10.9967 O   0  0  0  0  0  0  0  0  0  0  0  0
  -22.7366   18.6872  -13.6528 O   0  0  0  0  0  0  0  0  0  0  0  0
  1  2  2  0
  1  4  1  0
  1 13  1  0
  2  3  1  0
  3  6  2  0
  4  5  2  0
  4 14  1  0
  5  6  1  0
  6  8  1  0
 14  7  1  0
  8  9  2  0
  9 10  1  0
 10 11  2  0
 10 12  1  0
M  END
$$$$
