
     RDKit          3D

 14 14  0  0  0  0  0  0  0  0999 V2000
  -23.1009   18.2085  -11.7462 C   0  0  0  0  0  0  0  0  0  0  0  0
  -23.2957   17.3143  -10.7300 C   0  0  0  0  0  0  0  0  0  0  0  0
  -23.2434   15.9484  -11.0548 C   0  0  0  0  0  0  0  0  0  0  0  0
  -22.8634   17.8035  -13.0336 C   0  0  0  0  0  0  0  0  0  0  0  0
  -22.8248   16.4591  -13.2840 C   0  0  0  0  0  0  0  0  0  0  0  0
  -23.0125   15.4626  -12.3093 C   0  0  0  0  0  0  0  0  0  0  0  0
  -23.5283   19.6981  -14.4578 C   0  0  0  0  0  0  0  0  0  0  0  0
  -22.9555   14.0780  -12.6594 C   0  0  0  0  0  0  0  0  0  0  0  0
  -22.8988   13.3717  -13.7154 C   0  0  0  0  0  0  0  0  0  0  0  0
  -22.4113   12.1178  -14.1581 C   0  0  0  0  0  0  0  0  0  0  0  0
  -22.4173   11.8546  -15.4463 O   0  0  0  0  0  0  0  0  0  0  0  0
  -21.9054   11.0689  -13.4437 O   0  0  0  0  0  0  0  0  0  0  0  0
  -23.1377   19.5699  -11.5052 O   0  0  0  0  0  0  0  0  0  0  0  0
  -22.6636   18.6808  -14.0774 O   0  0  0  0  0  0  0  0  0  0  0  0
  1  2  2  0
  1  4  1  0
  1 13  1  0
  2  3  1  0
  3  6  2  0
  4  5  2  0
  4 14  1  0
  5  6  1  0
  6  8  1  0
 14  7  1  0
  8  9  2  0
  9 10  1  0
 10 11  2  0
 10 12  1  0
M  END
$$$$
