
     RDKit          3D

 14 14  0  0  0  0  0  0  0  0999 V2000
  -22.9987   18.1279  -11.7242 C   0  0  0  0  0  0  0  0  0  0  0  0
  -23.1188   17.1590  -10.7666 C   0  0  0  0  0  0  0  0  0  0  0  0
  -22.8245   15.8385  -11.1457 C   0  0  0  0  0  0  0  0  0  0  0  0
  -22.6083   17.8376  -13.0053 C   0  0  0  0  0  0  0  0  0  0  0  0
  -22.3363   16.5320  -13.3104 C   0  0  0  0  0  0  0  0  0  0  0  0
  -22.4300   15.4657  -12.3980 C   0  0  0  0  0  0  0  0  0  0  0  0
  -23.5143   19.5358  -14.5399 C   0  0  0  0  0  0  0  0  0  0  0  0
  -22.1263   14.1289  -12.8028 C   0  0  0  0  0  0  0  0  0  0  0  0
  -22.7524   13.0987  -13.2077 C   0  0  0  0  0  0  0  0  0  0  0  0
  -22.5596   11.9677  -14.0380 C   0  0  0  0  0  0  0  0  0  0  0  0
  -22.4502   12.1459  -15.3361 O   0  0  0  0  0  0  0  0  0  0  0  0
  -22.4609   10.6445  -13.7128 O   0  0  0  0  0  0  0  0  0  0  0  0
  -23.2709   19.4511  -11.4275 O   0  0  0  0  0  0  0  0  0  0  0  0
  -22.4786   18.7922  -13.9907 O   0  0  0  0  0  0  0  0  0  0  0  0
  1  2  2  0
  1  4  1  0
  1 13  1  0
  2  3  1  0
  3  6  2  0
  4  5  2  0
  4 14  1  0
  5  6  1  0
  6  8  1  0
 14  7  1  0
  8  9  2  0
  9 10  1  0
 10 11  2  0
 10 12  1  0
M  END
$$$$
