
     RDKit          3D

 14 14  0  0  0  0  0  0  0  0999 V2000
  -22.1896   12.0302  -14.1370 C   0  0  0  0  0  0  0  0  0  0  0  0
  -22.4553   11.9861  -12.7962 C   0  0  0  0  0  0  0  0  0  0  0  0
  -22.6383   13.2121  -12.1349 C   0  0  0  0  0  0  0  0  0  0  0  0
  -22.1025   13.2146  -14.8208 C   0  0  0  0  0  0  0  0  0  0  0  0
  -22.2908   14.3735  -14.1188 C   0  0  0  0  0  0  0  0  0  0  0  0
  -22.5682   14.4330  -12.7412 C   0  0  0  0  0  0  0  0  0  0  0  0
  -21.7910   14.4554  -16.9240 C   0  0  0  0  0  0  0  0  0  0  0  0
  -22.7512   15.6902  -12.0863 C   0  0  0  0  0  0  0  0  0  0  0  0
  -22.5341   16.9204  -12.3244 C   0  0  0  0  0  0  0  0  0  0  0  0
  -22.7448   18.1931  -11.7398 C   0  0  0  0  0  0  0  0  0  0  0  0
  -22.6005   19.2653  -12.4871 O   0  0  0  0  0  0  0  0  0  0  0  0
  -23.0922   18.5272  -10.4615 O   0  0  0  0  0  0  0  0  0  0  0  0
  -21.9974   10.8652  -14.8571 O   0  0  0  0  0  0  0  0  0  0  0  0
  -21.8363   13.2901  -16.1709 O   0  0  0  0  0  0  0  0  0  0  0  0
  1  2  2  0
  1  4  1  0
  1 13  1  0
  2  3  1  0
  3  6  2  0
  4  5  2  0
  4 14  1  0
  5  6  1  0
  6  8  1  0
 14  7  1  0
  8  9  2  0
  9 10  1  0
 10 11  2  0
 10 12  1  0
M  END
$$$$
