
     RDKit          3D

 14 14  0  0  0  0  0  0  0  0999 V2000
  -22.9489   18.0703  -10.9405 C   0  0  0  0  0  0  0  0  0  0  0  0
  -22.9865   16.8809  -10.2666 C   0  0  0  0  0  0  0  0  0  0  0  0
  -22.9211   15.7044  -11.0319 C   0  0  0  0  0  0  0  0  0  0  0  0
  -22.8516   18.1278  -12.3062 C   0  0  0  0  0  0  0  0  0  0  0  0
  -22.7918   16.9462  -12.9931 C   0  0  0  0  0  0  0  0  0  0  0  0
  -22.8234   15.6746  -12.3929 C   0  0  0  0  0  0  0  0  0  0  0  0
  -22.1985   19.4995  -14.2432 C   0  0  0  0  0  0  0  0  0  0  0  0
  -22.7557   14.4891  -13.1887 C   0  0  0  0  0  0  0  0  0  0  0  0
  -22.1995   13.3468  -13.1372 C   0  0  0  0  0  0  0  0  0  0  0  0
  -22.1495   12.1299  -13.8602 C   0  0  0  0  0  0  0  0  0  0  0  0
  -21.5127   11.1065  -13.3349 O   0  0  0  0  0  0  0  0  0  0  0  0
  -22.6761   11.8089  -15.0792 O   0  0  0  0  0  0  0  0  0  0  0  0
  -23.0087   19.2711  -10.2568 O   0  0  0  0  0  0  0  0  0  0  0  0
  -22.8117   19.3107  -13.0120 O   0  0  0  0  0  0  0  0  0  0  0  0
  1  2  2  0
  1  4  1  0
  1 13  1  0
  2  3  1  0
  3  6  2  0
  4  5  2  0
  4 14  1  0
  5  6  1  0
  6  8  1  0
 14  7  1  0
  8  9  2  0
  9 10  1  0
 10 11  2  0
 10 12  1  0
M  END
$$$$
