
     RDKit          3D

 14 14  0  0  0  0  0  0  0  0999 V2000
  -23.5750   17.9228  -11.5349 C   0  0  0  0  0  0  0  0  0  0  0  0
  -23.7475   16.7537  -10.8466 C   0  0  0  0  0  0  0  0  0  0  0  0
  -23.7344   15.5610  -11.5890 C   0  0  0  0  0  0  0  0  0  0  0  0
  -23.3956   17.9453  -12.8933 C   0  0  0  0  0  0  0  0  0  0  0  0
  -23.3929   16.7495  -13.5578 C   0  0  0  0  0  0  0  0  0  0  0  0
  -23.5619   15.4966  -12.9414 C   0  0  0  0  0  0  0  0  0  0  0  0
  -23.7198   19.3567  -14.8841 C   0  0  0  0  0  0  0  0  0  0  0  0
  -23.5455   14.2941  -13.7139 C   0  0  0  0  0  0  0  0  0  0  0  0
  -22.7290   13.3591  -13.9900 C   0  0  0  0  0  0  0  0  0  0  0  0
  -22.7289   12.0021  -14.3953 C   0  0  0  0  0  0  0  0  0  0  0  0
  -22.1352   11.6775  -15.5228 O   0  0  0  0  0  0  0  0  0  0  0  0
  -23.2675   10.9030  -13.7886 O   0  0  0  0  0  0  0  0  0  0  0  0
  -23.5759   19.1377  -10.8740 O   0  0  0  0  0  0  0  0  0  0  0  0
  -23.2195   19.1071  -13.6133 O   0  0  0  0  0  0  0  0  0  0  0  0
  1  2  2  0
  1  4  1  0
  1 13  1  0
  2  3  1  0
  3  6  2  0
  4  5  2  0
  4 14  1  0
  5  6  1  0
  6  8  1  0
 14  7  1  0
  8  9  2  0
  9 10  1  0
 10 11  2  0
 10 12  1  0
M  END
$$$$
