
     RDKit          3D

 14 14  0  0  0  0  0  0  0  0999 V2000
  -23.2579   17.9119  -11.3443 C   0  0  0  0  0  0  0  0  0  0  0  0
  -23.2467   16.7150  -10.6829 C   0  0  0  0  0  0  0  0  0  0  0  0
  -23.0892   15.5528  -11.4565 C   0  0  0  0  0  0  0  0  0  0  0  0
  -23.1221   17.9900  -12.7057 C   0  0  0  0  0  0  0  0  0  0  0  0
  -22.9723   16.8216  -13.4013 C   0  0  0  0  0  0  0  0  0  0  0  0
  -22.9480   15.5437  -12.8141 C   0  0  0  0  0  0  0  0  0  0  0  0
  -22.2566   19.5294  -14.4207 C   0  0  0  0  0  0  0  0  0  0  0  0
  -22.7867   14.3730  -13.6182 C   0  0  0  0  0  0  0  0  0  0  0  0
  -22.3981   13.1713  -13.4707 C   0  0  0  0  0  0  0  0  0  0  0  0
  -22.2224   11.9865  -14.2264 C   0  0  0  0  0  0  0  0  0  0  0  0
  -21.8105   10.8988  -13.6130 O   0  0  0  0  0  0  0  0  0  0  0  0
  -22.4157   11.7566  -15.5591 O   0  0  0  0  0  0  0  0  0  0  0  0
  -23.4087   19.0996  -10.6518 O   0  0  0  0  0  0  0  0  0  0  0  0
  -23.1296   19.1810  -13.3990 O   0  0  0  0  0  0  0  0  0  0  0  0
  1  2  2  0
  1  4  1  0
  1 13  1  0
  2  3  1  0
  3  6  2  0
  4  5  2  0
  4 14  1  0
  5  6  1  0
  6  8  1  0
 14  7  1  0
  8  9  2  0
  9 10  1  0
 10 11  2  0
 10 12  1  0
M  END
$$$$
