
     RDKit          3D

 14 14  0  0  0  0  0  0  0  0999 V2000
  -22.9946   18.2744  -11.4456 C   0  0  0  0  0  0  0  0  0  0  0  0
  -23.1881   17.3020  -10.5036 C   0  0  0  0  0  0  0  0  0  0  0  0
  -23.0569   15.9665  -10.9198 C   0  0  0  0  0  0  0  0  0  0  0  0
  -22.6848   17.9733  -12.7461 C   0  0  0  0  0  0  0  0  0  0  0  0
  -22.5714   16.6534  -13.0872 C   0  0  0  0  0  0  0  0  0  0  0  0
  -22.7513   15.5824  -12.1934 C   0  0  0  0  0  0  0  0  0  0  0  0
  -23.3994   19.9033  -14.0969 C   0  0  0  0  0  0  0  0  0  0  0  0
  -22.6135   14.2303  -12.6359 C   0  0  0  0  0  0  0  0  0  0  0  0
  -22.6513   13.5859  -13.7315 C   0  0  0  0  0  0  0  0  0  0  0  0
  -22.3337   12.3070  -14.2505 C   0  0  0  0  0  0  0  0  0  0  0  0
  -22.4661   12.0963  -15.5416 O   0  0  0  0  0  0  0  0  0  0  0  0
  -21.8873   11.1848  -13.6119 O   0  0  0  0  0  0  0  0  0  0  0  0
  -23.1065   19.6120  -11.1125 O   0  0  0  0  0  0  0  0  0  0  0  0
  -22.4843   18.9311  -13.7165 O   0  0  0  0  0  0  0  0  0  0  0  0
  1  2  2  0
  1  4  1  0
  1 13  1  0
  2  3  1  0
  3  6  2  0
  4  5  2  0
  4 14  1  0
  5  6  1  0
  6  8  1  0
 14  7  1  0
  8  9  2  0
  9 10  1  0
 10 11  2  0
 10 12  1  0
M  END
$$$$
