
     RDKit          3D

 14 14  0  0  0  0  0  0  0  0999 V2000
  -22.8901   17.9723  -11.0367 C   0  0  0  0  0  0  0  0  0  0  0  0
  -22.9568   16.7736  -10.3817 C   0  0  0  0  0  0  0  0  0  0  0  0
  -22.8772   15.6078  -11.1616 C   0  0  0  0  0  0  0  0  0  0  0  0
  -22.7513   18.0485  -12.3979 C   0  0  0  0  0  0  0  0  0  0  0  0
  -22.6796   16.8765  -13.0999 C   0  0  0  0  0  0  0  0  0  0  0  0
  -22.7387   15.5967  -12.5194 C   0  0  0  0  0  0  0  0  0  0  0  0
  -23.5349   20.3233  -12.9188 C   0  0  0  0  0  0  0  0  0  0  0  0
  -22.6560   14.4222  -13.3300 C   0  0  0  0  0  0  0  0  0  0  0  0
  -22.2510   13.2222  -13.2165 C   0  0  0  0  0  0  0  0  0  0  0  0
  -22.2401   12.0066  -13.9433 C   0  0  0  0  0  0  0  0  0  0  0  0
  -21.9646   10.8899  -13.3062 O   0  0  0  0  0  0  0  0  0  0  0  0
  -22.4788   11.7717  -15.2677 O   0  0  0  0  0  0  0  0  0  0  0  0
  -22.9615   19.1635  -10.3377 O   0  0  0  0  0  0  0  0  0  0  0  0
  -22.6813   19.2411  -13.0849 O   0  0  0  0  0  0  0  0  0  0  0  0
  1  2  2  0
  1  4  1  0
  1 13  1  0
  2  3  1  0
  3  6  2  0
  4  5  2  0
  4 14  1  0
  5  6  1  0
  6  8  1  0
 14  7  1  0
  8  9  2  0
  9 10  1  0
 10 11  2  0
 10 12  1  0
M  END
$$$$
