
     RDKit          3D

 14 14  0  0  0  0  0  0  0  0999 V2000
  -22.9278   18.2404  -11.6484 C   0  0  0  0  0  0  0  0  0  0  0  0
  -22.9242   17.2921  -10.6630 C   0  0  0  0  0  0  0  0  0  0  0  0
  -22.8099   15.9496  -11.0612 C   0  0  0  0  0  0  0  0  0  0  0  0
  -22.8250   17.9095  -12.9742 C   0  0  0  0  0  0  0  0  0  0  0  0
  -22.7165   16.5842  -13.2959 C   0  0  0  0  0  0  0  0  0  0  0  0
  -22.7033   15.5364  -12.3577 C   0  0  0  0  0  0  0  0  0  0  0  0
  -21.9472   18.8725  -15.0628 C   0  0  0  0  0  0  0  0  0  0  0  0
  -22.5862   14.1767  -12.7825 C   0  0  0  0  0  0  0  0  0  0  0  0
  -22.6608   13.5153  -13.8661 C   0  0  0  0  0  0  0  0  0  0  0  0
  -22.3058   12.2490  -14.3918 C   0  0  0  0  0  0  0  0  0  0  0  0
  -22.3065   12.0816  -15.6960 O   0  0  0  0  0  0  0  0  0  0  0  0
  -21.9405   11.1006  -13.7484 O   0  0  0  0  0  0  0  0  0  0  0  0
  -23.0369   19.5831  -11.3353 O   0  0  0  0  0  0  0  0  0  0  0  0
  -22.8259   18.8426  -13.9884 O   0  0  0  0  0  0  0  0  0  0  0  0
  1  2  2  0
  1  4  1  0
  1 13  1  0
  2  3  1  0
  3  6  2  0
  4  5  2  0
  4 14  1  0
  5  6  1  0
  6  8  1  0
 14  7  1  0
  8  9  2  0
  9 10  1  0
 10 11  2  0
 10 12  1  0
M  END
$$$$
