
     RDKit          3D

 14 14  0  0  0  0  0  0  0  0999 V2000
  -23.2074   17.9032  -11.4651 C   0  0  0  0  0  0  0  0  0  0  0  0
  -23.4257   16.8556  -10.6135 C   0  0  0  0  0  0  0  0  0  0  0  0
  -23.1591   15.5644  -11.0989 C   0  0  0  0  0  0  0  0  0  0  0  0
  -22.7476   17.7163  -12.7424 C   0  0  0  0  0  0  0  0  0  0  0  0
  -22.5074   16.4341  -13.1542 C   0  0  0  0  0  0  0  0  0  0  0  0
  -22.7002   15.2927  -12.3553 C   0  0  0  0  0  0  0  0  0  0  0  0
  -22.8044   18.7392  -14.9809 C   0  0  0  0  0  0  0  0  0  0  0  0
  -22.4233   13.9871  -12.8672 C   0  0  0  0  0  0  0  0  0  0  0  0
  -22.7634   13.2697  -13.8605 C   0  0  0  0  0  0  0  0  0  0  0  0
  -22.4770   12.0084  -14.4375 C   0  0  0  0  0  0  0  0  0  0  0  0
  -22.7848   11.8044  -15.6995 O   0  0  0  0  0  0  0  0  0  0  0  0
  -21.9036   10.8983  -13.8851 O   0  0  0  0  0  0  0  0  0  0  0  0
  -23.4467   19.2038  -11.0600 O   0  0  0  0  0  0  0  0  0  0  0  0
  -22.5185   18.7519  -13.6224 O   0  0  0  0  0  0  0  0  0  0  0  0
  1  2  2  0
  1  4  1  0
  1 13  1  0
  2  3  1  0
  3  6  2  0
  4  5  2  0
  4 14  1  0
  5  6  1  0
  6  8  1  0
 14  7  1  0
  8  9  2  0
  9 10  1  0
 10 11  2  0
 10 12  1  0
M  END
$$$$
