
     RDKit          3D

 14 14  0  0  0  0  0  0  0  0999 V2000
  -22.9384   18.1505  -11.3235 C   0  0  0  0  0  0  0  0  0  0  0  0
  -22.9792   17.1147  -10.4316 C   0  0  0  0  0  0  0  0  0  0  0  0
  -22.8590   15.8139  -10.9488 C   0  0  0  0  0  0  0  0  0  0  0  0
  -22.7868   17.9434  -12.6696 C   0  0  0  0  0  0  0  0  0  0  0  0
  -22.6752   16.6528  -13.1094 C   0  0  0  0  0  0  0  0  0  0  0  0
  -22.7054   15.5221  -12.2733 C   0  0  0  0  0  0  0  0  0  0  0  0
  -22.1432   18.9051  -14.8424 C   0  0  0  0  0  0  0  0  0  0  0  0
  -22.5815   14.2067  -12.8186 C   0  0  0  0  0  0  0  0  0  0  0  0
  -22.3307   13.6697  -13.9437 C   0  0  0  0  0  0  0  0  0  0  0  0
  -22.0544   12.3979  -14.5023 C   0  0  0  0  0  0  0  0  0  0  0  0
  -22.1039   12.2552  -15.8084 O   0  0  0  0  0  0  0  0  0  0  0  0
  -21.7258   11.2213  -13.8907 O   0  0  0  0  0  0  0  0  0  0  0  0
  -23.0501   19.4594  -10.8908 O   0  0  0  0  0  0  0  0  0  0  0  0
  -22.7422   18.9668  -13.5916 O   0  0  0  0  0  0  0  0  0  0  0  0
  1  2  2  0
  1  4  1  0
  1 13  1  0
  2  3  1  0
  3  6  2  0
  4  5  2  0
  4 14  1  0
  5  6  1  0
  6  8  1  0
 14  7  1  0
  8  9  2  0
  9 10  1  0
 10 11  2  0
 10 12  1  0
M  END
$$$$
