
     RDKit          3D

 34 37  0  0  0  0  0  0  0  0999 V2000
   21.8093   25.5526   52.8104 C   0  0  0  0  0  0  0  0  0  0  0  0
   21.4505   24.1164   55.7993 C   0  0  0  0  0  0  0  0  0  0  0  0
   21.8171   22.2196   54.2157 C   0  0  0  0  0  0  0  0  0  0  0  0
   23.6995   22.0915   52.5722 C   0  0  2  0  0  0  0  0  0  0  0  0
   18.0489   26.9613   53.8204 C   0  0  0  0  0  0  0  0  0  0  0  0
   18.3245   28.2339   55.9350 C   0  0  0  0  0  0  0  0  0  0  0  0
   17.9769   27.2104   58.0710 C   0  0  0  0  0  0  0  0  0  0  0  0
   18.9770   27.9768   60.1329 C   0  0  0  0  0  0  0  0  0  0  0  0
   20.1142   23.4456   48.6690 O   0  0  0  0  0  0  0  0  0  0  0  0
   19.9893   23.8773   49.9835 C   0  0  0  0  0  0  0  0  0  0  0  0
   21.0292   24.4847   50.6736 C   0  0  0  0  0  0  0  0  0  0  0  0
   22.3139   24.6710   49.9742 C   0  0  0  0  0  0  0  0  0  0  0  0
   23.5412   24.4753   50.4870 O   0  0  0  0  0  0  0  0  0  0  0  0
   24.4288   23.4644   50.6817 C   0  0  2  0  0  0  0  0  0  0  0  0
   24.1895   22.1635   49.9435 C   0  0  0  0  0  0  0  0  0  0  0  0
   22.1393   25.0641   48.7497 O   0  0  0  0  0  0  0  0  0  0  0  0
   20.7686   24.8673   51.9737 C   0  0  0  0  0  0  0  0  0  0  0  0
   21.2790   25.9645   54.1248 C   0  0  0  0  0  0  0  0  0  0  0  0
   21.5275   25.3782   55.4169 C   0  0  0  0  0  0  0  0  0  0  0  0
   21.0989   22.9523   55.0371 C   0  0  0  0  0  0  0  0  0  0  0  0
   23.2397   22.4245   53.8602 C   0  0  2  0  0  0  0  0  0  0  0  0
   24.0474   21.3070   53.6870 O   0  0  0  0  0  0  0  0  0  0  0  0
   24.7665   23.0877   52.0960 C   0  0  0  0  0  0  0  0  0  0  0  0
   20.4861   27.0130   54.0389 N   0  0  0  0  0  0  0  0  0  0  0  0
   19.3745   27.1080   53.2924 O   0  0  0  0  0  0  0  0  0  0  0  0
   18.0284   27.0622   55.2800 C   0  0  0  0  0  0  0  0  0  0  0  0
   18.3029   28.3210   57.3112 C   0  0  0  0  0  0  0  0  0  0  0  0
   17.9503   27.2804   59.4599 O   0  0  0  0  0  0  0  0  0  0  0  0
   17.6843   26.0515   57.4175 C   0  0  0  0  0  0  0  0  0  0  0  0
   17.7049   25.9600   56.0364 C   0  0  0  0  0  0  0  0  0  0  0  0
   19.5435   24.6638   52.5747 C   0  0  0  0  0  0  0  0  0  0  0  0
   18.5141   24.0611   51.8898 C   0  0  0  0  0  0  0  0  0  0  0  0
   17.2869   23.8657   52.5155 O   0  0  0  0  0  0  0  0  0  0  0  0
   18.7441   23.6665   50.5833 C   0  0  0  0  0  0  0  0  0  0  0  0
  1 17  1  0
 18  1  1  0
 19  2  2  0
  2 20  1  0
 20  3  2  0
  3 21  1  0
 21  4  1  0
 22  4  1  0
  4 23  1  1
 25  5  1  0
  5 26  1  0
 26  6  2  0
  6 27  1  0
 27  7  2  0
  7 28  1  0
  7 29  1  0
 28  8  1  0
 10  9  1  0
 11 10  2  0
 10 34  1  0
 11 12  1  0
 17 11  1  0
 12 13  1  0
 12 16  2  0
 13 14  1  0
 14 15  1  1
 14 23  1  0
 17 31  2  0
 18 19  1  0
 24 18  2  0
 21 22  1  1
 24 25  1  0
 26 30  1  0
 29 30  2  0
 31 32  1  0
 32 33  1  0
 32 34  2  0
M  END
$$$$
