
     RDKit          3D

 34 37  0  0  0  0  0  0  0  0999 V2000
   20.9615   25.5531   53.0124 C   0  0  0  0  0  0  0  0  0  0  0  0
   19.9700   24.0557   55.8231 C   0  0  0  0  0  0  0  0  0  0  0  0
   20.5768   22.1872   54.2802 C   0  0  0  0  0  0  0  0  0  0  0  0
   22.7413   22.0259   53.0353 C   0  0  2  0  0  0  0  0  0  0  0  0
   19.2406   28.3717   56.0410 C   0  0  0  0  0  0  0  0  0  0  0  0
   20.2360   27.7561   58.2312 C   0  0  0  0  0  0  0  0  0  0  0  0
   22.6055   27.7320   58.5714 C   0  0  0  0  0  0  0  0  0  0  0  0
   24.8983   27.0120   58.8236 C   0  0  0  0  0  0  0  0  0  0  0  0
   20.0466   23.6238   48.5510 O   0  0  0  0  0  0  0  0  0  0  0  0
   19.6794   24.0261   49.8290 C   0  0  0  0  0  0  0  0  0  0  0  0
   20.5827   24.5730   50.7297 C   0  0  0  0  0  0  0  0  0  0  0  0
   21.9858   24.7255   50.3030 C   0  0  0  0  0  0  0  0  0  0  0  0
   23.0802   24.4673   51.0402 O   0  0  0  0  0  0  0  0  0  0  0  0
   23.8765   23.4168   51.3717 C   0  0  2  0  0  0  0  0  0  0  0  0
   23.7432   22.1461   50.5580 C   0  0  0  0  0  0  0  0  0  0  0  0
   22.0703   25.1568   49.0818 O   0  0  0  0  0  0  0  0  0  0  0  0
   20.0837   24.9322   51.9653 C   0  0  0  0  0  0  0  0  0  0  0  0
   20.1964   25.9519   54.2100 C   0  0  0  0  0  0  0  0  0  0  0  0
   20.1644   25.3229   55.5055 C   0  0  0  0  0  0  0  0  0  0  0  0
   19.7361   22.9269   54.9684 C   0  0  0  0  0  0  0  0  0  0  0  0
   22.0477   22.3439   54.2181 C   0  0  2  0  0  0  0  0  0  0  0  0
   22.8349   21.1995   54.1699 O   0  0  0  0  0  0  0  0  0  0  0  0
   23.9150   22.9904   52.8114 C   0  0  0  0  0  0  0  0  0  0  0  0
   19.4726   27.0334   54.0050 N   0  0  0  0  0  0  0  0  0  0  0  0
   19.5862   28.1999   54.6595 O   0  0  0  0  0  0  0  0  0  0  0  0
   20.3870   28.1481   56.9224 C   0  0  0  0  0  0  0  0  0  0  0  0
   21.3216   27.5473   59.0557 C   0  0  0  0  0  0  0  0  0  0  0  0
   23.7116   27.5259   59.3890 O   0  0  0  0  0  0  0  0  0  0  0  0
   22.7501   28.1205   57.2737 C   0  0  0  0  0  0  0  0  0  0  0  0
   21.6630   28.3311   56.4431 C   0  0  0  0  0  0  0  0  0  0  0  0
   18.7577   24.7627   52.3067 C   0  0  0  0  0  0  0  0  0  0  0  0
   17.8638   24.2199   51.4133 C   0  0  0  0  0  0  0  0  0  0  0  0
   16.5312   24.0579   51.7788 O   0  0  0  0  0  0  0  0  0  0  0  0
   18.3337   23.8502   50.1650 C   0  0  0  0  0  0  0  0  0  0  0  0
  1 17  1  0
 18  1  1  0
 19  2  2  0
  2 20  1  0
 20  3  2  0
  3 21  1  0
 21  4  1  0
 22  4  1  0
  4 23  1  1
 25  5  1  0
  5 26  1  0
 26  6  2  0
  6 27  1  0
 27  7  2  0
  7 28  1  0
  7 29  1  0
 28  8  1  0
 10  9  1  0
 11 10  2  0
 10 34  1  0
 11 12  1  0
 17 11  1  0
 12 13  1  0
 12 16  2  0
 13 14  1  0
 14 15  1  6
 14 23  1  0
 17 31  2  0
 18 19  1  0
 24 18  2  0
 21 22  1  1
 24 25  1  0
 26 30  1  0
 29 30  2  0
 31 32  1  0
 32 33  1  0
 32 34  2  0
M  END
$$$$
