
     RDKit          3D

 34 37  0  0  0  0  0  0  0  0999 V2000
   21.0753   25.5133   52.7162 C   0  0  0  0  0  0  0  0  0  0  0  0
   19.9422   24.1096   55.5216 C   0  0  0  0  0  0  0  0  0  0  0  0
   20.5781   22.1901   54.0550 C   0  0  0  0  0  0  0  0  0  0  0  0
   22.7886   21.9584   52.9058 C   0  0  2  0  0  0  0  0  0  0  0  0
   18.4533   28.1343   55.4903 C   0  0  0  0  0  0  0  0  0  0  0  0
   20.2888   27.9700   57.1548 C   0  0  0  0  0  0  0  0  0  0  0  0
   20.0588   26.6734   59.1540 C   0  0  0  0  0  0  0  0  0  0  0  0
   21.7954   26.7067   60.8339 C   0  0  0  0  0  0  0  0  0  0  0  0
   20.3099   23.4800   48.2729 O   0  0  0  0  0  0  0  0  0  0  0  0
   19.8977   23.9228   49.5235 C   0  0  0  0  0  0  0  0  0  0  0  0
   20.7730   24.4785   50.4462 C   0  0  0  0  0  0  0  0  0  0  0  0
   22.1950   24.5955   50.0744 C   0  0  0  0  0  0  0  0  0  0  0  0
   23.2533   24.3389   50.8629 O   0  0  0  0  0  0  0  0  0  0  0  0
   24.0162   23.2843   51.2548 C   0  0  2  0  0  0  0  0  0  0  0  0
   23.8935   21.9946   50.4700 C   0  0  0  0  0  0  0  0  0  0  0  0
   22.3374   24.9921   48.8468 O   0  0  0  0  0  0  0  0  0  0  0  0
   20.2302   24.8793   51.6501 C   0  0  0  0  0  0  0  0  0  0  0  0
   20.2690   25.9574   53.8700 C   0  0  0  0  0  0  0  0  0  0  0  0
   20.1724   25.3642   55.1791 C   0  0  0  0  0  0  0  0  0  0  0  0
   19.7233   22.9622   54.6879 C   0  0  0  0  0  0  0  0  0  0  0  0
   22.0529   22.3200   54.0500 C   0  0  2  0  0  0  0  0  0  0  0  0
   22.8205   21.1616   54.0647 O   0  0  0  0  0  0  0  0  0  0  0  0
   23.9878   22.8964   52.7056 C   0  0  0  0  0  0  0  0  0  0  0  0
   19.5739   27.0450   53.6067 N   0  0  0  0  0  0  0  0  0  0  0  0
   19.4101   28.0986   54.4221 O   0  0  0  0  0  0  0  0  0  0  0  0
   19.0185   27.6402   56.7462 C   0  0  0  0  0  0  0  0  0  0  0  0
   20.8145   27.5002   58.3401 C   0  0  0  0  0  0  0  0  0  0  0  0
   20.5731   26.1906   60.3527 O   0  0  0  0  0  0  0  0  0  0  0  0
   18.8004   26.3493   58.7449 C   0  0  0  0  0  0  0  0  0  0  0  0
   18.2694   26.8188   57.5559 C   0  0  0  0  0  0  0  0  0  0  0  0
   18.8884   24.7417   51.9405 C   0  0  0  0  0  0  0  0  0  0  0  0
   18.0224   24.1901   51.0252 C   0  0  0  0  0  0  0  0  0  0  0  0
   16.6732   24.0608   51.3392 O   0  0  0  0  0  0  0  0  0  0  0  0
   18.5364   23.7789   49.8078 C   0  0  0  0  0  0  0  0  0  0  0  0
  1 17  1  0
 18  1  1  0
 19  2  2  0
  2 20  1  0
 20  3  2  0
  3 21  1  0
 21  4  1  0
 22  4  1  0
  4 23  1  1
 25  5  1  0
  5 26  1  0
 26  6  2  0
  6 27  1  0
 27  7  2  0
  7 28  1  0
  7 29  1  0
 28  8  1  0
 10  9  1  0
 11 10  2  0
 10 34  1  0
 11 12  1  0
 17 11  1  0
 12 13  1  0
 12 16  2  0
 13 14  1  0
 14 15  1  6
 14 23  1  0
 17 31  2  0
 18 19  1  0
 24 18  2  0
 21 22  1  1
 24 25  1  0
 26 30  1  0
 29 30  2  0
 31 32  1  0
 32 33  1  0
 32 34  2  0
M  END
$$$$
