
     RDKit          3D

 34 37  0  0  0  0  0  0  0  0999 V2000
   20.7567   25.5320   53.1868 C   0  0  0  0  0  0  0  0  0  0  0  0
   19.3718   23.5979   55.5248 C   0  0  0  0  0  0  0  0  0  0  0  0
   20.3555   22.0032   53.8728 C   0  0  0  0  0  0  0  0  0  0  0  0
   22.7130   22.1027   53.0404 C   0  0  2  0  0  0  0  0  0  0  0  0
   18.7564   27.6252   56.3722 C   0  0  0  0  0  0  0  0  0  0  0  0
   21.0373   27.4672   57.3410 C   0  0  0  0  0  0  0  0  0  0  0  0
   22.8535   28.7793   56.4980 C   0  0  0  0  0  0  0  0  0  0  0  0
   24.9622   28.8704   57.6744 C   0  0  0  0  0  0  0  0  0  0  0  0
   20.7701   24.2641   48.4061 O   0  0  0  0  0  0  0  0  0  0  0  0
   20.1573   24.4577   49.6377 C   0  0  0  0  0  0  0  0  0  0  0  0
   20.8508   24.8933   50.7583 C   0  0  0  0  0  0  0  0  0  0  0  0
   22.2958   25.1547   50.6248 C   0  0  0  0  0  0  0  0  0  0  0  0
   23.2547   24.8256   51.5079 O   0  0  0  0  0  0  0  0  0  0  0  0
   24.0409   23.7644   51.8294 C   0  0  2  0  0  0  0  0  0  0  0  0
   24.1316   22.6264   50.8339 C   0  0  0  0  0  0  0  0  0  0  0  0
   22.5706   25.7668   49.5138 O   0  0  0  0  0  0  0  0  0  0  0  0
   20.1188   25.0462   51.9181 C   0  0  0  0  0  0  0  0  0  0  0  0
   19.7676   25.7210   54.2661 C   0  0  0  0  0  0  0  0  0  0  0  0
   19.5430   24.9041   55.4311 C   0  0  0  0  0  0  0  0  0  0  0  0
   19.3625   22.6028   54.4908 C   0  0  0  0  0  0  0  0  0  0  0  0
   21.8018   22.2163   54.1071 C   0  0  2  0  0  0  0  0  0  0  0  0
   22.6523   21.1191   54.0443 O   0  0  0  0  0  0  0  0  0  0  0  0
   23.8476   23.1284   53.1764 C   0  0  0  0  0  0  0  0  0  0  0  0
   19.0282   26.7962   54.0854 N   0  0  0  0  0  0  0  0  0  0  0  0
   18.3075   27.4302   55.0238 O   0  0  0  0  0  0  0  0  0  0  0  0
   20.1665   28.0117   56.4276 C   0  0  0  0  0  0  0  0  0  0  0  0
   22.3653   27.8367   57.3868 C   0  0  0  0  0  0  0  0  0  0  0  0
   24.1899   29.1635   56.5301 O   0  0  0  0  0  0  0  0  0  0  0  0
   21.9868   29.3161   55.5945 C   0  0  0  0  0  0  0  0  0  0  0  0
   20.6533   28.9479   55.5454 C   0  0  0  0  0  0  0  0  0  0  0  0
   18.7657   24.7833   51.9806 C   0  0  0  0  0  0  0  0  0  0  0  0
   18.0799   24.3510   50.8694 C   0  0  0  0  0  0  0  0  0  0  0  0
   16.7157   24.0917   50.9551 O   0  0  0  0  0  0  0  0  0  0  0  0
   18.7863   24.1886   49.6903 C   0  0  0  0  0  0  0  0  0  0  0  0
  1 17  1  0
 18  1  1  0
 19  2  2  0
  2 20  1  0
 20  3  2  0
  3 21  1  0
 21  4  1  0
 22  4  1  0
  4 23  1  1
 25  5  1  0
  5 26  1  0
 26  6  2  0
  6 27  1  0
 27  7  2  0
  7 28  1  0
  7 29  1  0
 28  8  1  0
 10  9  1  0
 11 10  2  0
 10 34  1  0
 11 12  1  0
 17 11  1  0
 12 13  1  0
 12 16  2  0
 13 14  1  0
 14 15  1  6
 14 23  1  0
 17 31  2  0
 18 19  1  0
 24 18  2  0
 21 22  1  1
 24 25  1  0
 26 30  1  0
 29 30  2  0
 31 32  1  0
 32 33  1  0
 32 34  2  0
M  END
$$$$
