
     RDKit          3D

 34 37  0  0  0  0  0  0  0  0999 V2000
   21.1872   25.3774   52.9525 C   0  0  0  0  0  0  0  0  0  0  0  0
   20.1252   23.8205   55.7045 C   0  0  0  0  0  0  0  0  0  0  0  0
   20.7035   21.9852   54.1115 C   0  0  0  0  0  0  0  0  0  0  0  0
   22.8780   21.8072   52.8864 C   0  0  2  0  0  0  0  0  0  0  0  0
   19.1285   28.6173   55.5740 C   0  0  0  0  0  0  0  0  0  0  0  0
   18.8691   27.6122   57.8299 C   0  0  0  0  0  0  0  0  0  0  0  0
   20.6114   27.7345   59.4671 C   0  0  0  0  0  0  0  0  0  0  0  0
   20.2726   26.7968   61.6682 C   0  0  0  0  0  0  0  0  0  0  0  0
   20.2775   23.6091   48.4238 O   0  0  0  0  0  0  0  0  0  0  0  0
   19.9053   23.9813   49.7094 C   0  0  0  0  0  0  0  0  0  0  0  0
   20.8112   24.4774   50.6365 C   0  0  0  0  0  0  0  0  0  0  0  0
   22.2227   24.6072   50.2303 C   0  0  0  0  0  0  0  0  0  0  0  0
   23.3014   24.2991   50.9713 O   0  0  0  0  0  0  0  0  0  0  0  0
   24.0673   23.2191   51.2792 C   0  0  2  0  0  0  0  0  0  0  0  0
   23.9120   21.9776   50.4252 C   0  0  0  0  0  0  0  0  0  0  0  0
   22.3324   25.0733   49.0240 O   0  0  0  0  0  0  0  0  0  0  0  0
   20.3067   24.8112   51.8770 C   0  0  0  0  0  0  0  0  0  0  0  0
   20.4181   25.7587   54.1532 C   0  0  0  0  0  0  0  0  0  0  0  0
   20.3550   25.0914   55.4282 C   0  0  0  0  0  0  0  0  0  0  0  0
   19.8735   22.7245   54.8128 C   0  0  0  0  0  0  0  0  0  0  0  0
   22.1786   22.1064   54.0707 C   0  0  2  0  0  0  0  0  0  0  0  0
   22.9374   20.9445   53.9959 O   0  0  0  0  0  0  0  0  0  0  0  0
   24.0780   22.7480   52.7054 C   0  0  0  0  0  0  0  0  0  0  0  0
   19.7241   26.8639   53.9736 N   0  0  0  0  0  0  0  0  0  0  0  0
   19.9608   28.0522   54.5515 O   0  0  0  0  0  0  0  0  0  0  0  0
   19.6243   28.3066   56.9151 C   0  0  0  0  0  0  0  0  0  0  0  0
   19.3437   27.3231   59.0922 C   0  0  0  0  0  0  0  0  0  0  0  0
   21.1058   27.4516   60.7360 O   0  0  0  0  0  0  0  0  0  0  0  0
   21.3561   28.4224   58.5572 C   0  0  0  0  0  0  0  0  0  0  0  0
   20.8834   28.7145   57.2894 C   0  0  0  0  0  0  0  0  0  0  0  0
   18.9729   24.6650   52.1983 C   0  0  0  0  0  0  0  0  0  0  0  0
   18.0764   24.1725   51.2786 C   0  0  0  0  0  0  0  0  0  0  0  0
   16.7360   24.0332   51.6242 O   0  0  0  0  0  0  0  0  0  0  0  0
   18.5517   23.8293   50.0249 C   0  0  0  0  0  0  0  0  0  0  0  0
  1 17  1  0
 18  1  1  0
 19  2  2  0
  2 20  1  0
 20  3  2  0
  3 21  1  0
 21  4  1  0
 22  4  1  0
  4 23  1  1
 25  5  1  0
  5 26  1  0
 26  6  2  0
  6 27  1  0
 27  7  2  0
  7 28  1  0
  7 29  1  0
 28  8  1  0
 10  9  1  0
 11 10  2  0
 10 34  1  0
 11 12  1  0
 17 11  1  0
 12 13  1  0
 12 16  2  0
 13 14  1  0
 14 15  1  6
 14 23  1  0
 17 31  2  0
 18 19  1  0
 24 18  2  0
 21 22  1  1
 24 25  1  0
 26 30  1  0
 29 30  2  0
 31 32  1  0
 32 33  1  0
 32 34  2  0
M  END
$$$$
