
     RDKit          3D

 34 37  0  0  0  0  0  0  0  0999 V2000
   21.5960   25.7514   52.7211 C   0  0  0  0  0  0  0  0  0  0  0  0
   20.8092   24.3823   55.6591 C   0  0  0  0  0  0  0  0  0  0  0  0
   21.5509   22.4674   54.2368 C   0  0  0  0  0  0  0  0  0  0  0  0
   23.6928   22.4104   52.9447 C   0  0  2  0  0  0  0  0  0  0  0  0
   18.5287   28.2621   55.2646 C   0  0  0  0  0  0  0  0  0  0  0  0
   18.7042   26.2324   56.6846 C   0  0  0  0  0  0  0  0  0  0  0  0
   19.0426   26.3800   59.0499 C   0  0  0  0  0  0  0  0  0  0  0  0
   18.8919   24.4092   60.4398 C   0  0  0  0  0  0  0  0  0  0  0  0
   20.7635   23.4235   48.4373 O   0  0  0  0  0  0  0  0  0  0  0  0
   20.3893   23.8842   49.6934 C   0  0  0  0  0  0  0  0  0  0  0  0
   21.2583   24.5754   50.5262 C   0  0  0  0  0  0  0  0  0  0  0  0
   22.6316   24.8217   50.0493 C   0  0  0  0  0  0  0  0  0  0  0  0
   23.7612   24.7184   50.7711 O   0  0  0  0  0  0  0  0  0  0  0  0
   24.6580   23.7713   51.1538 C   0  0  2  0  0  0  0  0  0  0  0  0
   24.6241   22.4372   50.4372 C   0  0  0  0  0  0  0  0  0  0  0  0
   22.6488   25.1676   48.7985 O   0  0  0  0  0  0  0  0  0  0  0  0
   20.7560   24.9783   51.7468 C   0  0  0  0  0  0  0  0  0  0  0  0
   20.8242   26.1669   53.9088 C   0  0  0  0  0  0  0  0  0  0  0  0
   20.8791   25.6349   55.2463 C   0  0  0  0  0  0  0  0  0  0  0  0
   20.6612   23.1770   54.8944 C   0  0  0  0  0  0  0  0  0  0  0  0
   22.9994   22.7509   54.1213 C   0  0  2  0  0  0  0  0  0  0  0  0
   23.8872   21.6818   54.1323 O   0  0  0  0  0  0  0  0  0  0  0  0
   24.7675   23.4575   52.6186 C   0  0  0  0  0  0  0  0  0  0  0  0
   19.9997   27.1606   53.6479 N   0  0  0  0  0  0  0  0  0  0  0  0
   19.7151   28.1898   54.4615 O   0  0  0  0  0  0  0  0  0  0  0  0
   18.7041   27.6011   56.5582 C   0  0  0  0  0  0  0  0  0  0  0  0
   18.8702   25.6169   57.9076 C   0  0  0  0  0  0  0  0  0  0  0  0
   19.2113   25.7759   60.2913 O   0  0  0  0  0  0  0  0  0  0  0  0
   19.0417   27.7361   58.9197 C   0  0  0  0  0  0  0  0  0  0  0  0
   18.8754   28.3575   57.6940 C   0  0  0  0  0  0  0  0  0  0  0  0
   19.4591   24.7156   52.1377 C   0  0  0  0  0  0  0  0  0  0  0  0
   18.5993   24.0300   51.3115 C   0  0  0  0  0  0  0  0  0  0  0  0
   17.2957   23.7759   51.7260 O   0  0  0  0  0  0  0  0  0  0  0  0
   19.0733   23.6130   50.0798 C   0  0  0  0  0  0  0  0  0  0  0  0
  1 17  1  0
 18  1  1  0
 19  2  2  0
  2 20  1  0
 20  3  2  0
  3 21  1  0
 21  4  1  0
 22  4  1  0
  4 23  1  1
 25  5  1  0
  5 26  1  0
 26  6  2  0
  6 27  1  0
 27  7  2  0
  7 28  1  0
  7 29  1  0
 28  8  1  0
 10  9  1  0
 11 10  2  0
 10 34  1  0
 11 12  1  0
 17 11  1  0
 12 13  1  0
 12 16  2  0
 13 14  1  0
 14 15  1  6
 14 23  1  0
 17 31  2  0
 18 19  1  0
 24 18  2  0
 21 22  1  1
 24 25  1  0
 26 30  1  0
 29 30  2  0
 31 32  1  0
 32 33  1  0
 32 34  2  0
M  END
$$$$
