
     RDKit          3D

 34 37  0  0  0  0  0  0  0  0999 V2000
   21.2270   25.1132   53.4809 C   0  0  0  0  0  0  0  0  0  0  0  0
   19.2131   23.2889   55.4151 C   0  0  0  0  0  0  0  0  0  0  0  0
   19.8471   21.7701   53.5359 C   0  0  0  0  0  0  0  0  0  0  0  0
   22.1976   21.3463   52.7899 C   0  0  2  0  0  0  0  0  0  0  0  0
   20.8442   28.5685   55.6772 C   0  0  0  0  0  0  0  0  0  0  0  0
   21.6133   27.6797   57.8647 C   0  0  0  0  0  0  0  0  0  0  0  0
   23.8766   26.9802   58.2104 C   0  0  0  0  0  0  0  0  0  0  0  0
   24.6640   26.4143   60.4236 C   0  0  0  0  0  0  0  0  0  0  0  0
   21.2368   24.6723   48.5546 O   0  0  0  0  0  0  0  0  0  0  0  0
   20.6131   24.8281   49.7861 C   0  0  0  0  0  0  0  0  0  0  0  0
   21.3173   24.8702   50.9813 C   0  0  0  0  0  0  0  0  0  0  0  0
   22.7852   24.7402   50.9297 C   0  0  0  0  0  0  0  0  0  0  0  0
   23.5560   24.0223   51.7652 O   0  0  0  0  0  0  0  0  0  0  0  0
   24.0042   22.7480   51.9169 C   0  0  2  0  0  0  0  0  0  0  0  0
   23.8565   21.8036   50.7418 C   0  0  0  0  0  0  0  0  0  0  0  0
   23.2915   25.4220   49.9483 O   0  0  0  0  0  0  0  0  0  0  0  0
   20.5732   25.0319   52.1323 C   0  0  0  0  0  0  0  0  0  0  0  0
   20.2514   25.3930   54.5526 C   0  0  0  0  0  0  0  0  0  0  0  0
   19.7345   24.4946   55.5529 C   0  0  0  0  0  0  0  0  0  0  0  0
   19.0103   22.5137   54.2245 C   0  0  0  0  0  0  0  0  0  0  0  0
   21.2774   21.5352   53.8381 C   0  0  2  0  0  0  0  0  0  0  0  0
   21.8048   20.2704   53.6067 O   0  0  0  0  0  0  0  0  0  0  0  0
   23.5531   21.9833   53.1284 C   0  0  0  0  0  0  0  0  0  0  0  0
   19.8420   26.6450   54.5431 N   0  0  0  0  0  0  0  0  0  0  0  0
   20.6247   27.7356   54.5303 O   0  0  0  0  0  0  0  0  0  0  0  0
   21.8756   28.0219   56.5595 C   0  0  0  0  0  0  0  0  0  0  0  0
   22.5910   27.1648   58.6901 C   0  0  0  0  0  0  0  0  0  0  0  0
   24.8746   26.4622   59.0289 O   0  0  0  0  0  0  0  0  0  0  0  0
   24.1317   27.3208   56.9163 C   0  0  0  0  0  0  0  0  0  0  0  0
   23.1532   27.8378   56.0848 C   0  0  0  0  0  0  0  0  0  0  0  0
   19.1984   25.1464   52.1160 C   0  0  0  0  0  0  0  0  0  0  0  0
   18.5018   25.1038   50.9307 C   0  0  0  0  0  0  0  0  0  0  0  0
   17.1155   25.2211   50.9376 O   0  0  0  0  0  0  0  0  0  0  0  0
   19.2200   24.9433   49.7585 C   0  0  0  0  0  0  0  0  0  0  0  0
  1 17  1  0
 18  1  1  0
 19  2  2  0
  2 20  1  0
 20  3  2  0
  3 21  1  0
 21  4  1  0
 22  4  1  0
  4 23  1  1
 25  5  1  0
  5 26  1  0
 26  6  2  0
  6 27  1  0
 27  7  2  0
  7 28  1  0
  7 29  1  0
 28  8  1  0
 10  9  1  0
 11 10  2  0
 10 34  1  0
 11 12  1  0
 17 11  1  0
 12 13  1  0
 12 16  2  0
 13 14  1  0
 14 15  1  6
 14 23  1  0
 17 31  2  0
 18 19  1  0
 24 18  2  0
 21 22  1  1
 24 25  1  0
 26 30  1  0
 29 30  2  0
 31 32  1  0
 32 33  1  0
 32 34  2  0
M  END
$$$$
