
     RDKit          3D

 34 37  0  0  0  0  0  0  0  0999 V2000
   21.5681   25.6442   52.5858 C   0  0  0  0  0  0  0  0  0  0  0  0
   20.6342   24.1790   55.4329 C   0  0  0  0  0  0  0  0  0  0  0  0
   21.0914   22.2927   53.8603 C   0  0  0  0  0  0  0  0  0  0  0  0
   23.1909   22.0426   52.5224 C   0  0  2  0  0  0  0  0  0  0  0  0
   18.4935   28.2119   55.0795 C   0  0  0  0  0  0  0  0  0  0  0  0
   17.6995   26.6110   56.8038 C   0  0  0  0  0  0  0  0  0  0  0  0
   18.0968   26.9779   59.1359 C   0  0  0  0  0  0  0  0  0  0  0  0
   17.2779   25.3940   60.7667 C   0  0  0  0  0  0  0  0  0  0  0  0
   20.3778   23.7768   48.1633 O   0  0  0  0  0  0  0  0  0  0  0  0
   20.0841   24.1890   49.4570 C   0  0  0  0  0  0  0  0  0  0  0  0
   21.0485   24.6919   50.3191 C   0  0  0  0  0  0  0  0  0  0  0  0
   22.4373   24.7848   49.8324 C   0  0  0  0  0  0  0  0  0  0  0  0
   23.5501   24.4758   50.5208 O   0  0  0  0  0  0  0  0  0  0  0  0
   24.3131   23.3900   50.8148 C   0  0  2  0  0  0  0  0  0  0  0  0
   24.0893   22.1301   50.0043 C   0  0  0  0  0  0  0  0  0  0  0  0
   22.4878   25.2175   48.6098 O   0  0  0  0  0  0  0  0  0  0  0  0
   20.6196   25.0669   51.5761 C   0  0  0  0  0  0  0  0  0  0  0  0
   20.8736   26.0707   53.8165 C   0  0  0  0  0  0  0  0  0  0  0  0
   20.8700   25.4378   55.1105 C   0  0  0  0  0  0  0  0  0  0  0  0
   20.3144   23.0652   54.5862 C   0  0  0  0  0  0  0  0  0  0  0  0
   22.5637   22.3852   53.7350 C   0  0  2  0  0  0  0  0  0  0  0  0
   23.2971   21.2078   53.6498 O   0  0  0  0  0  0  0  0  0  0  0  0
   24.3950   22.9559   52.2504 C   0  0  0  0  0  0  0  0  0  0  0  0
   20.1898   27.1836   53.6458 N   0  0  0  0  0  0  0  0  0  0  0  0
   19.8381   28.0537   54.6056 O   0  0  0  0  0  0  0  0  0  0  0  0
   18.3492   27.7749   56.4684 C   0  0  0  0  0  0  0  0  0  0  0  0
   17.5678   26.2059   58.1155 C   0  0  0  0  0  0  0  0  0  0  0  0
   17.9732   26.5844   60.4642 O   0  0  0  0  0  0  0  0  0  0  0  0
   18.7398   28.1305   58.7986 C   0  0  0  0  0  0  0  0  0  0  0  0
   18.8741   28.5405   57.4833 C   0  0  0  0  0  0  0  0  0  0  0  0
   19.3034   24.9540   51.9742 C   0  0  0  0  0  0  0  0  0  0  0  0
   18.3488   24.4547   51.1189 C   0  0  0  0  0  0  0  0  0  0  0  0
   17.0275   24.3495   51.5414 O   0  0  0  0  0  0  0  0  0  0  0  0
   18.7478   24.0705   49.8505 C   0  0  0  0  0  0  0  0  0  0  0  0
  1 17  1  0
 18  1  1  0
 19  2  2  0
  2 20  1  0
 20  3  2  0
  3 21  1  0
 21  4  1  0
 22  4  1  0
  4 23  1  1
 25  5  1  0
  5 26  1  0
 26  6  2  0
  6 27  1  0
 27  7  2  0
  7 28  1  0
  7 29  1  0
 28  8  1  0
 10  9  1  0
 11 10  2  0
 10 34  1  0
 11 12  1  0
 17 11  1  0
 12 13  1  0
 12 16  2  0
 13 14  1  0
 14 15  1  6
 14 23  1  0
 17 31  2  0
 18 19  1  0
 24 18  2  0
 21 22  1  1
 24 25  1  0
 26 30  1  0
 29 30  2  0
 31 32  1  0
 32 33  1  0
 32 34  2  0
M  END
$$$$
