
     RDKit          3D

 34 37  0  0  0  0  0  0  0  0999 V2000
   21.5598   25.5660   52.7604 C   0  0  0  0  0  0  0  0  0  0  0  0
   21.3502   24.0760   55.7372 C   0  0  0  0  0  0  0  0  0  0  0  0
   21.7061   22.2136   54.1109 C   0  0  0  0  0  0  0  0  0  0  0  0
   23.5284   22.1599   52.3971 C   0  0  2  0  0  0  0  0  0  0  0  0
   18.9483   28.5278   55.4338 C   0  0  0  0  0  0  0  0  0  0  0  0
   19.0886   27.3103   57.5935 C   0  0  0  0  0  0  0  0  0  0  0  0
   17.1971   26.1704   58.5177 C   0  0  0  0  0  0  0  0  0  0  0  0
   15.2489   25.0605   59.4185 C   0  0  0  0  0  0  0  0  0  0  0  0
   19.7657   23.4776   48.6515 O   0  0  0  0  0  0  0  0  0  0  0  0
   19.6790   23.8860   49.9765 C   0  0  0  0  0  0  0  0  0  0  0  0
   20.7280   24.5102   50.6372 C   0  0  0  0  0  0  0  0  0  0  0  0
   21.9804   24.7408   49.8938 C   0  0  0  0  0  0  0  0  0  0  0  0
   23.2307   24.5698   50.3576 O   0  0  0  0  0  0  0  0  0  0  0  0
   24.1507   23.5799   50.5031 C   0  0  2  0  0  0  0  0  0  0  0  0
   23.9176   22.2844   49.7535 C   0  0  0  0  0  0  0  0  0  0  0  0
   21.7500   25.1475   48.6830 O   0  0  0  0  0  0  0  0  0  0  0  0
   20.5065   24.8662   51.9520 C   0  0  0  0  0  0  0  0  0  0  0  0
   21.0686   25.9440   54.1000 C   0  0  0  0  0  0  0  0  0  0  0  0
   21.3803   25.3450   55.3725 C   0  0  0  0  0  0  0  0  0  0  0  0
   21.0005   22.9147   54.9700 C   0  0  0  0  0  0  0  0  0  0  0  0
   23.1086   22.4613   53.7063 C   0  0  2  0  0  0  0  0  0  0  0  0
   23.9378   21.3682   53.4854 O   0  0  0  0  0  0  0  0  0  0  0  0
   24.5508   23.1910   51.8977 C   0  0  0  0  0  0  0  0  0  0  0  0
   20.2463   26.9724   54.0604 N   0  0  0  0  0  0  0  0  0  0  0  0
   20.1805   27.9705   54.9556 O   0  0  0  0  0  0  0  0  0  0  0  0
   18.3606   27.7177   56.5011 C   0  0  0  0  0  0  0  0  0  0  0  0
   18.5272   26.5468   58.5956 C   0  0  0  0  0  0  0  0  0  0  0  0
   16.6149   25.4006   59.5192 O   0  0  0  0  0  0  0  0  0  0  0  0
   16.4797   26.5765   57.4332 C   0  0  0  0  0  0  0  0  0  0  0  0
   17.0394   27.3429   56.4255 C   0  0  0  0  0  0  0  0  0  0  0  0
   19.3104   24.6214   52.5946 C   0  0  0  0  0  0  0  0  0  0  0  0
   18.2719   24.0022   51.9387 C   0  0  0  0  0  0  0  0  0  0  0  0
   17.0745   23.7651   52.6062 O   0  0  0  0  0  0  0  0  0  0  0  0
   18.4630   23.6335   50.6185 C   0  0  0  0  0  0  0  0  0  0  0  0
  1 17  1  0
 18  1  1  0
 19  2  2  0
  2 20  1  0
 20  3  2  0
  3 21  1  0
 21  4  1  0
 22  4  1  0
  4 23  1  1
 25  5  1  0
  5 26  1  0
 26  6  2  0
  6 27  1  0
 27  7  2  0
  7 28  1  0
  7 29  1  0
 28  8  1  0
 10  9  1  0
 11 10  2  0
 10 34  1  0
 11 12  1  0
 17 11  1  0
 12 13  1  0
 12 16  2  0
 13 14  1  0
 14 15  1  1
 14 23  1  0
 17 31  2  0
 18 19  1  0
 24 18  2  0
 21 22  1  1
 24 25  1  0
 26 30  1  0
 29 30  2  0
 31 32  1  0
 32 33  1  0
 32 34  2  0
M  END
$$$$
