
     RDKit          3D

 34 37  0  0  0  0  0  0  0  0999 V2000
   20.9345   22.9237   52.7351 C   0  0  0  0  0  0  0  0  0  0  0  0
   19.9420   24.2192   55.6440 C   0  0  0  0  0  0  0  0  0  0  0  0
   18.5034   25.3229   53.9257 C   0  0  0  0  0  0  0  0  0  0  0  0
   17.2058   24.1009   52.1696 C   0  0  2  0  0  0  0  0  0  0  0  0
   24.5696   23.1214   52.4822 C   0  0  0  0  0  0  0  0  0  0  0  0
   24.7852   25.4309   53.3688 C   0  0  0  0  0  0  0  0  0  0  0  0
   26.2828   25.9530   55.1620 C   0  0  0  0  0  0  0  0  0  0  0  0
   26.0094   27.7746   56.7259 C   0  0  0  0  0  0  0  0  0  0  0  0
   21.0490   25.5991   48.5768 O   0  0  0  0  0  0  0  0  0  0  0  0
   21.3242   25.3808   49.9208 C   0  0  0  0  0  0  0  0  0  0  0  0
   20.9391   24.2247   50.5852 C   0  0  0  0  0  0  0  0  0  0  0  0
   20.2066   23.1956   49.8245 C   0  0  0  0  0  0  0  0  0  0  0  0
   19.1470   22.4864   50.2510 O   0  0  0  0  0  0  0  0  0  0  0  0
   17.7946   22.5984   50.3293 C   0  0  2  0  0  0  0  0  0  0  0  0
   17.1300   23.6975   49.5263 C   0  0  0  0  0  0  0  0  0  0  0  0
   20.7088   23.0287   48.6394 O   0  0  0  0  0  0  0  0  0  0  0  0
   21.2789   24.1358   51.9198 C   0  0  0  0  0  0  0  0  0  0  0  0
   21.4868   23.0011   54.1018 C   0  0  0  0  0  0  0  0  0  0  0  0
   20.7922   23.2561   55.3376 C   0  0  0  0  0  0  0  0  0  0  0  0
   19.4546   25.2978   54.8323 C   0  0  0  0  0  0  0  0  0  0  0  0
   17.6554   24.1861   53.5007 C   0  0  2  0  0  0  0  0  0  0  0  0
   16.3181   24.4287   53.2105 O   0  0  0  0  0  0  0  0  0  0  0  0
   17.1704   22.6411   51.6948 C   0  0  0  0  0  0  0  0  0  0  0  0
   22.7880   22.7968   54.1286 N   0  0  0  0  0  0  0  0  0  0  0  0
   23.5413   22.3456   53.1133 O   0  0  0  0  0  0  0  0  0  0  0  0
   25.1494   24.1058   53.3964 C   0  0  0  0  0  0  0  0  0  0  0  0
   25.3363   26.3528   54.2340 C   0  0  0  0  0  0  0  0  0  0  0  0
   26.8488   26.8694   56.0421 O   0  0  0  0  0  0  0  0  0  0  0  0
   26.6405   24.6388   55.1856 C   0  0  0  0  0  0  0  0  0  0  0  0
   26.0897   23.7105   54.3190 C   0  0  0  0  0  0  0  0  0  0  0  0
   21.9653   25.1356   52.5779 C   0  0  0  0  0  0  0  0  0  0  0  0
   22.3457   26.2811   51.9183 C   0  0  0  0  0  0  0  0  0  0  0  0
   23.0369   27.2765   52.6016 O   0  0  0  0  0  0  0  0  0  0  0  0
   22.0200   26.3997   50.5783 C   0  0  0  0  0  0  0  0  0  0  0  0
  1 17  1  0
 18  1  1  0
 19  2  2  0
  2 20  1  0
 20  3  2  0
  3 21  1  0
 21  4  1  0
 22  4  1  0
  4 23  1  1
 25  5  1  0
  5 26  1  0
 26  6  2  0
  6 27  1  0
 27  7  2  0
  7 28  1  0
  7 29  1  0
 28  8  1  0
 10  9  1  0
 11 10  2  0
 10 34  1  0
 11 12  1  0
 17 11  1  0
 12 13  1  0
 12 16  2  0
 13 14  1  0
 14 15  1  1
 14 23  1  0
 17 31  2  0
 18 19  1  0
 24 18  2  0
 21 22  1  1
 24 25  1  0
 26 30  1  0
 29 30  2  0
 31 32  1  0
 32 33  1  0
 32 34  2  0
M  END
$$$$
