
     RDKit          3D

 34 37  0  0  0  0  0  0  0  0999 V2000
   21.2973   25.1781   53.3741 C   0  0  0  0  0  0  0  0  0  0  0  0
   19.5933   23.5537   55.7369 C   0  0  0  0  0  0  0  0  0  0  0  0
   20.2094   21.7991   54.0690 C   0  0  0  0  0  0  0  0  0  0  0  0
   22.5245   21.4270   53.1957 C   0  0  2  0  0  0  0  0  0  0  0  0
   20.0596   27.5335   56.6164 C   0  0  0  0  0  0  0  0  0  0  0  0
   21.9571   27.5940   58.2171 C   0  0  0  0  0  0  0  0  0  0  0  0
   24.2125   27.2220   57.5058 C   0  0  0  0  0  0  0  0  0  0  0  0
   26.2519   28.2359   58.3130 C   0  0  0  0  0  0  0  0  0  0  0  0
   20.9747   23.9471   48.5946 O   0  0  0  0  0  0  0  0  0  0  0  0
   20.4342   24.2559   49.8365 C   0  0  0  0  0  0  0  0  0  0  0  0
   21.2200   24.5405   50.9447 C   0  0  0  0  0  0  0  0  0  0  0  0
   22.6856   24.5077   50.7860 C   0  0  0  0  0  0  0  0  0  0  0  0
   23.5741   23.9908   51.6526 O   0  0  0  0  0  0  0  0  0  0  0  0
   24.1373   22.7927   51.9610 C   0  0  2  0  0  0  0  0  0  0  0  0
   23.9813   21.6624   50.9647 C   0  0  0  0  0  0  0  0  0  0  0  0
   23.0583   25.0556   49.6700 O   0  0  0  0  0  0  0  0  0  0  0  0
   20.5534   24.8336   52.1169 C   0  0  0  0  0  0  0  0  0  0  0  0
   20.3847   25.5582   54.4703 C   0  0  0  0  0  0  0  0  0  0  0  0
   20.0210   24.7995   55.6394 C   0  0  0  0  0  0  0  0  0  0  0  0
   19.3673   22.5836   54.7038 C   0  0  0  0  0  0  0  0  0  0  0  0
   21.6728   21.7177   54.2780 C   0  0  2  0  0  0  0  0  0  0  0  0
   22.2853   20.4726   54.2012 O   0  0  0  0  0  0  0  0  0  0  0  0
   23.8436   22.2044   53.3115 C   0  0  0  0  0  0  0  0  0  0  0  0
   19.8726   26.7602   54.3018 N   0  0  0  0  0  0  0  0  0  0  0  0
   19.8410   27.7441   55.2145 O   0  0  0  0  0  0  0  0  0  0  0  0
   21.4834   27.4295   56.9373 C   0  0  0  0  0  0  0  0  0  0  0  0
   23.3008   27.4944   58.5116 C   0  0  0  0  0  0  0  0  0  0  0  0
   25.5711   27.1181   57.7850 O   0  0  0  0  0  0  0  0  0  0  0  0
   23.7382   27.0598   56.2391 C   0  0  0  0  0  0  0  0  0  0  0  0
   22.3905   27.1590   55.9395 C   0  0  0  0  0  0  0  0  0  0  0  0
   19.1764   24.8467   52.2030 C   0  0  0  0  0  0  0  0  0  0  0  0
   18.3990   24.5638   51.1041 C   0  0  0  0  0  0  0  0  0  0  0  0
   17.0122   24.5826   51.2136 O   0  0  0  0  0  0  0  0  0  0  0  0
   19.0383   24.2666   49.9131 C   0  0  0  0  0  0  0  0  0  0  0  0
  1 17  1  0
 18  1  1  0
 19  2  2  0
  2 20  1  0
 20  3  2  0
  3 21  1  0
 21  4  1  0
 22  4  1  0
  4 23  1  1
 25  5  1  0
  5 26  1  0
 26  6  2  0
  6 27  1  0
 27  7  2  0
  7 28  1  0
  7 29  1  0
 28  8  1  0
 10  9  1  0
 11 10  2  0
 10 34  1  0
 11 12  1  0
 17 11  1  0
 12 13  1  0
 12 16  2  0
 13 14  1  0
 14 15  1  6
 14 23  1  0
 17 31  2  0
 18 19  1  0
 24 18  2  0
 21 22  1  1
 24 25  1  0
 26 30  1  0
 29 30  2  0
 31 32  1  0
 32 33  1  0
 32 34  2  0
M  END
$$$$
