
     RDKit          3D

 34 37  0  0  0  0  0  0  0  0999 V2000
   21.5241   25.2692   53.2142 C   0  0  0  0  0  0  0  0  0  0  0  0
   21.0396   23.4652   55.9775 C   0  0  0  0  0  0  0  0  0  0  0  0
   21.6126   21.7935   54.2120 C   0  0  0  0  0  0  0  0  0  0  0  0
   23.6063   21.9500   52.7082 C   0  0  2  0  0  0  0  0  0  0  0  0
   19.5845   27.4377   56.7232 C   0  0  0  0  0  0  0  0  0  0  0  0
   18.3286   26.8439   58.7815 C   0  0  0  0  0  0  0  0  0  0  0  0
   16.2809   27.9391   59.3631 C   0  0  0  0  0  0  0  0  0  0  0  0
   15.2241   27.5042   61.4922 C   0  0  0  0  0  0  0  0  0  0  0  0
   20.2276   23.6093   48.7390 O   0  0  0  0  0  0  0  0  0  0  0  0
   19.9912   23.8717   50.0826 C   0  0  0  0  0  0  0  0  0  0  0  0
   20.9483   24.4360   50.9144 C   0  0  0  0  0  0  0  0  0  0  0  0
   22.2658   24.7628   50.3386 C   0  0  0  0  0  0  0  0  0  0  0  0
   23.4641   24.5607   50.9138 O   0  0  0  0  0  0  0  0  0  0  0  0
   24.3886   23.5739   51.0524 C   0  0  2  0  0  0  0  0  0  0  0  0
   24.2691   22.3633   50.1498 C   0  0  0  0  0  0  0  0  0  0  0  0
   22.1542   25.2939   49.1597 O   0  0  0  0  0  0  0  0  0  0  0  0
   20.5802   24.6455   52.2278 C   0  0  0  0  0  0  0  0  0  0  0  0
   20.8848   25.4941   54.5254 C   0  0  0  0  0  0  0  0  0  0  0  0
   21.0756   24.7664   55.7538 C   0  0  0  0  0  0  0  0  0  0  0  0
   20.8026   22.3882   55.0591 C   0  0  0  0  0  0  0  0  0  0  0  0
   23.0431   22.1030   53.9891 C   0  0  2  0  0  0  0  0  0  0  0  0
   23.9187   21.0518   53.7449 O   0  0  0  0  0  0  0  0  0  0  0  0
   24.6490   23.0431   52.4332 C   0  0  0  0  0  0  0  0  0  0  0  0
   20.0452   26.5091   54.5060 N   0  0  0  0  0  0  0  0  0  0  0  0
   19.1843   26.8453   55.4796 O   0  0  0  0  0  0  0  0  0  0  0  0
   18.4553   27.5985   57.6396 C   0  0  0  0  0  0  0  0  0  0  0  0
   17.2612   27.0015   59.6405 C   0  0  0  0  0  0  0  0  0  0  0  0
   15.1976   28.1112   60.2183 O   0  0  0  0  0  0  0  0  0  0  0  0
   16.4107   28.6845   58.2303 C   0  0  0  0  0  0  0  0  0  0  0  0
   17.4805   28.5293   57.3657 C   0  0  0  0  0  0  0  0  0  0  0  0
   19.3296   24.3163   52.7086 C   0  0  0  0  0  0  0  0  0  0  0  0
   18.3823   23.7565   51.8831 C   0  0  0  0  0  0  0  0  0  0  0  0
   17.1276   23.4322   52.3891 O   0  0  0  0  0  0  0  0  0  0  0  0
   18.7210   23.5345   50.5597 C   0  0  0  0  0  0  0  0  0  0  0  0
  1 17  1  0
 18  1  1  0
 19  2  2  0
  2 20  1  0
 20  3  2  0
  3 21  1  0
 21  4  1  0
 22  4  1  0
  4 23  1  1
 25  5  1  0
  5 26  1  0
 26  6  2  0
  6 27  1  0
 27  7  2  0
  7 28  1  0
  7 29  1  0
 28  8  1  0
 10  9  1  0
 11 10  2  0
 10 34  1  0
 11 12  1  0
 17 11  1  0
 12 13  1  0
 12 16  2  0
 13 14  1  0
 14 15  1  6
 14 23  1  0
 17 31  2  0
 18 19  1  0
 24 18  2  0
 21 22  1  1
 24 25  1  0
 26 30  1  0
 29 30  2  0
 31 32  1  0
 32 33  1  0
 32 34  2  0
M  END
$$$$
