
     RDKit          3D

 34 37  0  0  0  0  0  0  0  0999 V2000
   21.1802   25.4546   53.1866 C   0  0  0  0  0  0  0  0  0  0  0  0
   19.5795   23.8066   55.6048 C   0  0  0  0  0  0  0  0  0  0  0  0
   20.3968   22.0304   54.0500 C   0  0  0  0  0  0  0  0  0  0  0  0
   22.7568   21.8325   53.2426 C   0  0  2  0  0  0  0  0  0  0  0  0
   20.5651   28.3517   55.7457 C   0  0  0  0  0  0  0  0  0  0  0  0
   19.2152   27.1343   57.4376 C   0  0  0  0  0  0  0  0  0  0  0  0
   20.1962   26.2749   59.4451 C   0  0  0  0  0  0  0  0  0  0  0  0
   21.2445   25.0360   61.2354 C   0  0  0  0  0  0  0  0  0  0  0  0
   21.0887   23.9412   48.4788 O   0  0  0  0  0  0  0  0  0  0  0  0
   20.4921   24.2643   49.6910 C   0  0  0  0  0  0  0  0  0  0  0  0
   21.2211   24.6817   50.7959 C   0  0  0  0  0  0  0  0  0  0  0  0
   22.6867   24.7793   50.6668 C   0  0  0  0  0  0  0  0  0  0  0  0
   23.5986   24.3966   51.5775 O   0  0  0  0  0  0  0  0  0  0  0  0
   24.2639   23.2758   51.9634 C   0  0  2  0  0  0  0  0  0  0  0  0
   24.2382   22.0835   51.0294 C   0  0  0  0  0  0  0  0  0  0  0  0
   23.0331   25.2988   49.5289 O   0  0  0  0  0  0  0  0  0  0  0  0
   20.5021   24.9735   51.9371 C   0  0  0  0  0  0  0  0  0  0  0  0
   20.2101   25.8054   54.2424 C   0  0  0  0  0  0  0  0  0  0  0  0
   19.8911   25.0802   55.4454 C   0  0  0  0  0  0  0  0  0  0  0  0
   19.4701   22.7649   54.6237 C   0  0  0  0  0  0  0  0  0  0  0  0
   21.8560   22.0995   54.2906 C   0  0  2  0  0  0  0  0  0  0  0  0
   22.5839   20.9156   54.2954 O   0  0  0  0  0  0  0  0  0  0  0  0
   23.9943   22.7364   53.3391 C   0  0  0  0  0  0  0  0  0  0  0  0
   19.5920   26.9426   53.9970 N   0  0  0  0  0  0  0  0  0  0  0  0
   19.5294   28.0043   54.8161 O   0  0  0  0  0  0  0  0  0  0  0  0
   20.4228   27.6361   57.0140 C   0  0  0  0  0  0  0  0  0  0  0  0
   19.0892   26.4608   58.6345 C   0  0  0  0  0  0  0  0  0  0  0  0
   20.0872   25.5981   60.6553 O   0  0  0  0  0  0  0  0  0  0  0  0
   21.3907   26.7741   59.0212 C   0  0  0  0  0  0  0  0  0  0  0  0
   21.5212   27.4505   57.8206 C   0  0  0  0  0  0  0  0  0  0  0  0
   19.1282   24.8607   51.9965 C   0  0  0  0  0  0  0  0  0  0  0  0
   18.4072   24.4463   50.9009 C   0  0  0  0  0  0  0  0  0  0  0  0
   17.0225   24.3395   50.9832 O   0  0  0  0  0  0  0  0  0  0  0  0
   19.0999   24.1469   49.7406 C   0  0  0  0  0  0  0  0  0  0  0  0
  1 17  1  0
 18  1  1  0
 19  2  2  0
  2 20  1  0
 20  3  2  0
  3 21  1  0
 21  4  1  0
 22  4  1  0
  4 23  1  1
 25  5  1  0
  5 26  1  0
 26  6  2  0
  6 27  1  0
 27  7  2  0
  7 28  1  0
  7 29  1  0
 28  8  1  0
 10  9  1  0
 11 10  2  0
 10 34  1  0
 11 12  1  0
 17 11  1  0
 12 13  1  0
 12 16  2  0
 13 14  1  0
 14 15  1  6
 14 23  1  0
 17 31  2  0
 18 19  1  0
 24 18  2  0
 21 22  1  1
 24 25  1  0
 26 30  1  0
 29 30  2  0
 31 32  1  0
 32 33  1  0
 32 34  2  0
M  END
$$$$
