
     RDKit          3D

 34 37  0  0  0  0  0  0  0  0999 V2000
   20.7241   23.6296   52.4958 C   0  0  0  0  0  0  0  0  0  0  0  0
   23.4820   24.9083   53.8685 C   0  0  0  0  0  0  0  0  0  0  0  0
   21.7733   26.7212   54.0532 C   0  0  0  0  0  0  0  0  0  0  0  0
   19.4811   26.4138   55.0083 C   0  0  2  0  0  0  0  0  0  0  0  0
   23.7119   20.5468   52.2134 C   0  0  0  0  0  0  0  0  0  0  0  0
   24.1138   21.1312   54.5933 C   0  0  0  0  0  0  0  0  0  0  0  0
   25.3689   23.0726   55.2149 C   0  0  0  0  0  0  0  0  0  0  0  0
   25.5868   25.2773   56.1798 C   0  0  0  0  0  0  0  0  0  0  0  0
   17.5690   26.4013   49.8832 O   0  0  0  0  0  0  0  0  0  0  0  0
   18.8369   25.9377   50.2109 C   0  0  0  0  0  0  0  0  0  0  0  0
   19.0573   25.0143   51.2234 C   0  0  0  0  0  0  0  0  0  0  0  0
   17.8919   24.5150   51.9763 C   0  0  0  0  0  0  0  0  0  0  0  0
   17.8205   24.3174   53.3043 O   0  0  0  0  0  0  0  0  0  0  0  0
   17.5534   25.0173   54.4385 C   0  0  2  0  0  0  0  0  0  0  0  0
   16.9042   26.3779   54.2915 C   0  0  0  0  0  0  0  0  0  0  0  0
   16.8860   24.2698   51.1936 O   0  0  0  0  0  0  0  0  0  0  0  0
   20.3666   24.6373   51.4426 C   0  0  0  0  0  0  0  0  0  0  0  0
   22.1630   23.3008   52.4810 C   0  0  0  0  0  0  0  0  0  0  0  0
   23.1859   23.7052   53.4112 C   0  0  0  0  0  0  0  0  0  0  0  0
   22.8677   26.1718   53.5758 C   0  0  0  0  0  0  0  0  0  0  0  0
   20.8610   26.1420   55.0653 C   0  0  2  0  0  0  0  0  0  0  0  0
   20.2888   26.9908   56.0051 O   0  0  0  0  0  0  0  0  0  0  0  0
   18.6623   25.1877   55.4373 C   0  0  0  0  0  0  0  0  0  0  0  0
   22.4905   22.5308   51.4636 N   0  0  0  0  0  0  0  0  0  0  0  0
   22.6539   21.1988   51.4971 O   0  0  0  0  0  0  0  0  0  0  0  0
   24.2752   21.4051   53.2560 C   0  0  0  0  0  0  0  0  0  0  0  0
   24.6480   21.9452   55.5701 C   0  0  0  0  0  0  0  0  0  0  0  0
   25.9145   23.9046   56.1869 O   0  0  0  0  0  0  0  0  0  0  0  0
   25.5261   23.3400   53.8885 C   0  0  0  0  0  0  0  0  0  0  0  0
   24.9916   22.5255   52.9051 C   0  0  0  0  0  0  0  0  0  0  0  0
   21.4168   25.1426   50.7040 C   0  0  0  0  0  0  0  0  0  0  0  0
   21.1968   26.0581   49.7013 C   0  0  0  0  0  0  0  0  0  0  0  0
   22.2707   26.5545   48.9692 O   0  0  0  0  0  0  0  0  0  0  0  0
   19.8939   26.4557   49.4566 C   0  0  0  0  0  0  0  0  0  0  0  0
  1 17  1  0
 18  1  1  0
 19  2  2  0
  2 20  1  0
 20  3  2  0
  3 21  1  0
 21  4  1  0
 22  4  1  0
  4 23  1  1
 25  5  1  0
  5 26  1  0
 26  6  2  0
  6 27  1  0
 27  7  2  0
  7 28  1  0
  7 29  1  0
 28  8  1  0
 10  9  1  0
 11 10  2  0
 10 34  1  0
 11 12  1  0
 17 11  1  0
 12 13  1  0
 12 16  2  0
 13 14  1  0
 14 15  1  6
 14 23  1  0
 17 31  2  0
 18 19  1  0
 24 18  2  0
 21 22  1  1
 24 25  1  0
 26 30  1  0
 29 30  2  0
 31 32  1  0
 32 33  1  0
 32 34  2  0
M  END
$$$$
