
     RDKit          3D

 77 79  0  0  0  0  0  0  0  0999 V2000
  -10.9819    8.0186  -39.7718 N   0  0  0  0  0  0  0  0  0  0  0  0
  -11.0834    8.7108  -38.5686 C   0  0  0  0  0  0  0  0  0  0  0  0
  -10.3176    8.5225  -37.5788 O   0  0  0  0  0  0  0  0  0  0  0  0
   -9.6390    7.8375  -40.3932 C   0  0  1  0  0  0  0  0  0  0  0  0
   -8.6161    8.0471  -39.3236 C   0  0  0  0  0  0  0  0  0  0  0  0
   -8.2923    6.8481  -38.4882 C   0  0  0  0  0  0  0  0  0  0  0  0
   -6.9117    7.0427  -37.3733 S   0  0  0  0  0  0  0  0  0  0  0  0
   -6.1467    5.5729  -36.7464 C   0  0  0  0  0  0  0  0  0  0  0  0
   -9.7056    6.4438  -40.9240 C   0  0  0  0  0  0  0  0  0  0  0  0
  -10.5250    6.2047  -41.8902 O   0  0  0  0  0  0  0  0  0  0  0  0
   -8.9706    5.3357  -40.4980 N   0  0  0  0  0  0  0  0  0  0  0  0
   -9.1801    3.9572  -40.9773 C   0  0  2  0  0  0  0  0  0  0  0  0
  -10.6345    3.6103  -40.8670 C   0  0  0  0  0  0  0  0  0  0  0  0
  -10.9841    2.8004  -39.9570 O   0  0  0  0  0  0  0  0  0  0  0  0
   -8.3990    3.0342  -40.0960 C   0  0  0  0  0  0  0  0  0  0  0  0
   -8.4244    1.5839  -40.5104 C   0  0  0  0  0  0  0  0  0  0  0  0
   -8.0502    0.7380  -39.3150 C   0  0  0  0  0  0  0  0  0  0  0  0
   -7.9509   -0.6721  -39.6590 N   0  0  0  0  0  0  0  0  0  0  0  0
   -7.3483   -1.5795  -38.7550 C   0  0  0  0  0  0  0  0  0  0  0  0
   -6.8073   -1.0403  -37.5558 N   0  0  0  0  0  0  0  0  0  0  0  0
   -7.2691   -2.8414  -38.9602 N   0  0  0  0  0  0  0  0  0  0  0  0
  -11.6210    4.1427  -41.7284 N   0  0  0  0  0  0  0  0  0  0  0  0
  -12.9752    3.5986  -41.8455 C   0  0  2  0  0  0  0  0  0  0  0  0
  -13.4911    3.1894  -40.5456 C   0  0  0  0  0  0  0  0  0  0  0  0
  -14.6877    3.3405  -40.1688 O   0  0  0  0  0  0  0  0  0  0  0  0
  -13.0618    2.5813  -42.9311 C   0  0  2  0  0  0  0  0  0  0  0  0
  -12.2348    2.8272  -44.0134 O   0  0  0  0  0  0  0  0  0  0  0  0
  -14.4830    2.4407  -43.4595 C   0  0  0  0  0  0  0  0  0  0  0  0
  -12.6382    2.5597  -39.5797 N   0  0  0  0  0  0  0  0  0  0  0  0
  -13.1311    2.1230  -38.3118 C   0  0  0  0  0  0  0  0  0  0  0  0
  -13.4587    3.1449  -37.3313 C   0  0  0  0  0  0  0  0  0  0  0  0
  -13.7841    2.8426  -36.1635 O   0  0  0  0  0  0  0  0  0  0  0  0
  -13.4058    4.5099  -37.6926 N   0  0  0  0  0  0  0  0  0  0  0  0
  -13.7502    5.6230  -36.8654 C   0  0  2  0  0  0  0  0  0  0  0  0
  -15.1462    5.5259  -36.4297 C   0  0  0  0  0  0  0  0  0  0  0  0
  -15.4787    6.0765  -35.3428 O   0  0  0  0  0  0  0  0  0  0  0  0
  -13.5034    6.9392  -37.6078 C   0  0  0  0  0  0  0  0  0  0  0  0
  -13.7241    8.0770  -36.6745 C   0  0  0  0  0  0  0  0  0  0  0  0
  -13.5396    9.2405  -37.0708 O   0  0  0  0  0  0  0  0  0  0  0  0
  -14.1409    7.8609  -35.3384 N   0  0  0  0  0  0  0  0  0  0  0  0
  -16.1074    4.8334  -37.1955 N   0  0  0  0  0  0  0  0  0  0  0  0
  -17.4930    4.9633  -36.7280 C   0  0  2  0  0  0  0  0  0  0  0  0
  -17.9145    3.5871  -36.2993 C   0  0  0  0  0  0  0  0  0  0  0  0
  -19.0124    3.4213  -35.7674 O   0  0  0  0  0  0  0  0  0  0  0  0
  -18.3920    5.4293  -37.8179 C   0  0  0  0  0  0  0  0  0  0  0  0
  -17.0445    2.4718  -36.5166 N   0  0  0  0  0  0  0  0  0  0  0  0
  -17.2933    1.2647  -35.8039 C   0  0  2  0  0  0  0  0  0  0  0  0
  -18.4976    1.2161  -34.9761 C   0  0  0  0  0  0  0  0  0  0  0  0
  -19.6120    1.3478  -35.5970 O   0  0  0  0  0  0  0  0  0  0  0  0
  -16.0167    0.9413  -35.0133 C   0  0  0  0  0  0  0  0  0  0  0  0
  -16.0451   -0.4242  -34.4946 C   0  0  0  0  0  0  0  0  0  0  0  0
  -15.1166   -1.0102  -33.8661 O   0  0  0  0  0  0  0  0  0  0  0  0
  -17.2226   -1.1576  -34.7188 O   0  0  0  0  0  0  0  0  0  0  0  0
  -19.8926    1.8464  -31.4809 O   0  0  0  0  0  0  0  0  0  0  0  0
  -19.9750    0.9173  -32.7049 P   0  0  1  0  0  5  0  0  0  0  0  0
  -21.2182    1.5575  -33.6696 O   0  0  0  0  0  0  0  0  0  0  0  0
  -18.4782    1.0389  -33.5680 N   0  0  0  0  0  0  0  0  0  0  0  0
  -20.3479   -0.5950  -32.1360 O   0  0  0  0  0  0  0  0  0  0  0  0
  -20.4958   -1.5758  -33.1118 C   0  0  0  0  0  0  0  0  0  0  0  0
  -20.6989   -2.9301  -32.5214 C   0  0  2  0  0  0  0  0  0  0  0  0
  -21.2032   -3.9738  -33.4928 C   0  0  1  0  0  0  0  0  0  0  0  0
  -20.1430   -4.5457  -34.2044 O   0  0  0  0  0  0  0  0  0  0  0  0
  -21.7014   -5.0230  -32.5144 C   0  0  1  0  0  0  0  0  0  0  0  0
  -20.5996   -5.8329  -32.1742 O   0  0  0  0  0  0  0  0  0  0  0  0
  -22.0485   -4.2011  -31.3023 C   0  0  1  0  0  0  0  0  0  0  0  0
  -21.6899   -2.8790  -31.5524 O   0  0  0  0  0  0  0  0  0  0  0  0
  -23.4384   -4.2535  -30.9564 N   0  0  0  0  0  0  0  0  0  0  0  0
  -23.9987   -4.3886  -29.7462 C   0  0  0  0  0  0  0  0  0  0  0  0
  -25.3826   -4.3725  -29.8884 C   0  0  0  0  0  0  0  0  0  0  0  0
  -25.6150   -4.2254  -31.2144 N   0  0  0  0  0  0  0  0  0  0  0  0
  -24.4441   -4.1564  -31.8330 C   0  0  0  0  0  0  0  0  0  0  0  0
  -23.5114   -4.5249  -28.5195 N   0  0  0  0  0  0  0  0  0  0  0  0
  -24.2654   -4.6458  -27.4171 C   0  0  0  0  0  0  0  0  0  0  0  0
  -25.6064   -4.6283  -27.5650 N   0  0  0  0  0  0  0  0  0  0  0  0
  -26.1787   -4.4942  -28.7751 C   0  0  0  0  0  0  0  0  0  0  0  0
  -27.5848   -4.4751  -28.8774 N   0  0  0  0  0  0  0  0  0  0  0  0
   -6.6919   -3.4260  -38.3239 H   0  0  0  0  0  0  0  0  0  0  0  0
  1  2  1  0
  4  1  1  0
  2  3  2  0
  4  5  1  1
  9  4  1  0
  5  6  1  0
  6  7  1  0
  7  8  1  0
  9 10  2  0
 11  9  1  0
 12 11  1  0
 13 12  1  0
 12 15  1  1
 13 14  2  0
 22 13  1  0
 15 16  1  0
 16 17  1  0
 17 18  1  0
 18 19  1  0
 19 20  1  0
 19 21  2  0
 23 22  1  1
 24 23  1  0
 23 26  1  0
 24 25  2  0
 29 24  1  0
 26 27  1  0
 26 28  1  6
 30 29  1  0
 31 30  1  0
 31 32  2  0
 33 31  1  0
 34 33  1  0
 35 34  1  0
 34 37  1  6
 35 36  2  0
 41 35  1  0
 37 38  1  0
 38 39  2  0
 38 40  1  0
 42 41  1  0
 43 42  1  0
 42 45  1  6
 43 44  2  0
 46 43  1  0
 47 46  1  0
 48 47  1  0
 47 50  1  1
 48 49  2  0
 57 48  1  0
 50 51  1  0
 51 52  2  0
 51 53  1  0
 55 54  2  0
 55 56  1  6
 55 57  1  0
 55 58  1  0
 58 59  1  0
 60 59  1  6
 60 61  1  0
 60 66  1  0
 61 62  1  6
 61 63  1  0
 63 64  1  1
 63 65  1  0
 65 66  1  0
 65 67  1  6
 67 68  1  0
 67 71  1  0
 68 69  2  0
 68 72  1  0
 69 70  1  0
 69 75  1  0
 70 71  2  0
 72 73  2  0
 73 74  1  0
 74 75  2  0
 75 76  1  0
 21 77  1  0
M  END
$$$$
