
     RDKit          3D

 77 79  0  0  0  0  0  0  0  0999 V2000
  -17.6501   -7.7883  -11.6437 N   0  0  0  0  0  0  0  0  0  0  0  0
  -18.0457   -7.4528  -12.9352 C   0  0  0  0  0  0  0  0  0  0  0  0
  -17.2833   -7.5070  -13.9438 O   0  0  0  0  0  0  0  0  0  0  0  0
  -18.6915   -8.1133  -10.6276 C   0  0  1  0  0  0  0  0  0  0  0  0
  -18.4690   -7.2167   -9.4525 C   0  0  0  0  0  0  0  0  0  0  0  0
  -17.7622   -7.8344   -8.2865 C   0  0  0  0  0  0  0  0  0  0  0  0
  -17.0142   -6.6816   -7.1471 S   0  0  0  0  0  0  0  0  0  0  0  0
  -15.2681   -6.8086   -6.8757 C   0  0  0  0  0  0  0  0  0  0  0  0
  -19.9641   -7.8635  -11.3670 C   0  0  0  0  0  0  0  0  0  0  0  0
  -20.1682   -6.6792  -11.8334 O   0  0  0  0  0  0  0  0  0  0  0  0
  -20.9886   -8.7754  -11.6285 N   0  0  0  0  0  0  0  0  0  0  0  0
  -22.0840   -8.5515  -12.5897 C   0  0  2  0  0  0  0  0  0  0  0  0
  -21.5959   -7.6699  -13.6999 C   0  0  0  0  0  0  0  0  0  0  0  0
  -20.8007   -6.7284  -13.4041 O   0  0  0  0  0  0  0  0  0  0  0  0
  -23.1953   -7.8503  -11.8741 C   0  0  0  0  0  0  0  0  0  0  0  0
  -23.0696   -6.3480  -11.8185 C   0  0  0  0  0  0  0  0  0  0  0  0
  -24.3042   -5.7890  -11.1494 C   0  0  0  0  0  0  0  0  0  0  0  0
  -24.0951   -5.5651   -9.7271 N   0  0  0  0  0  0  0  0  0  0  0  0
  -24.1842   -6.6485   -8.8203 C   0  0  0  0  0  0  0  0  0  0  0  0
  -24.6359   -7.8937   -9.3370 N   0  0  0  0  0  0  0  0  0  0  0  0
  -23.8815   -6.5639   -7.5786 N   0  0  0  0  0  0  0  0  0  0  0  0
  -21.9836   -7.8430  -15.0483 N   0  0  0  0  0  0  0  0  0  0  0  0
  -21.4106   -7.0837  -16.1612 C   0  0  2  0  0  0  0  0  0  0  0  0
  -20.0541   -6.6477  -15.8563 C   0  0  0  0  0  0  0  0  0  0  0  0
  -19.2428   -6.1807  -16.7051 O   0  0  0  0  0  0  0  0  0  0  0  0
  -22.3448   -6.0241  -16.6364 C   0  0  2  0  0  0  0  0  0  0  0  0
  -22.7959   -5.1716  -15.6437 O   0  0  0  0  0  0  0  0  0  0  0  0
  -23.5665   -6.6175  -17.3248 C   0  0  0  0  0  0  0  0  0  0  0  0
  -19.5402   -6.7200  -14.5194 N   0  0  0  0  0  0  0  0  0  0  0  0
  -18.2160   -6.2906  -14.1978 C   0  0  0  0  0  0  0  0  0  0  0  0
  -17.7638   -6.4778  -12.8291 C   0  0  0  0  0  0  0  0  0  0  0  0
  -16.8883   -5.7402  -12.3287 O   0  0  0  0  0  0  0  0  0  0  0  0
  -18.3224   -7.5065  -12.0377 N   0  0  0  0  0  0  0  0  0  0  0  0
  -18.3532   -7.5602  -10.6100 C   0  0  2  0  0  0  0  0  0  0  0  0
  -17.0105   -7.3547  -10.0598 C   0  0  0  0  0  0  0  0  0  0  0  0
  -16.8834   -7.2310   -8.8094 O   0  0  0  0  0  0  0  0  0  0  0  0
  -18.9359   -8.8945  -10.1363 C   0  0  0  0  0  0  0  0  0  0  0  0
  -19.6332   -9.5556  -11.2725 C   0  0  0  0  0  0  0  0  0  0  0  0
  -20.1018  -10.6972  -11.1244 O   0  0  0  0  0  0  0  0  0  0  0  0
  -19.7743   -8.9087  -12.5244 N   0  0  0  0  0  0  0  0  0  0  0  0
  -15.8765   -7.2912  -10.8963 N   0  0  0  0  0  0  0  0  0  0  0  0
  -14.6264   -7.7712  -10.2946 C   0  0  2  0  0  0  0  0  0  0  0  0
  -13.5915   -7.6993  -11.3806 C   0  0  0  0  0  0  0  0  0  0  0  0
  -12.4283   -8.0229  -11.1398 O   0  0  0  0  0  0  0  0  0  0  0  0
  -14.7513   -9.1807   -9.8351 C   0  0  0  0  0  0  0  0  0  0  0  0
  -13.9602   -7.2634  -12.6929 N   0  0  0  0  0  0  0  0  0  0  0  0
  -13.1398   -6.3008  -13.3466 C   0  0  2  0  0  0  0  0  0  0  0  0
  -13.3906   -4.8935  -13.0395 C   0  0  0  0  0  0  0  0  0  0  0  0
  -12.9867   -4.4882  -11.8917 O   0  0  0  0  0  0  0  0  0  0  0  0
  -13.2109   -6.6012  -14.8513 C   0  0  0  0  0  0  0  0  0  0  0  0
  -14.4003   -6.0061  -15.4559 C   0  0  0  0  0  0  0  0  0  0  0  0
  -14.7013   -4.7773  -15.4735 O   0  0  0  0  0  0  0  0  0  0  0  0
  -15.2982   -6.8896  -16.0785 O   0  0  0  0  0  0  0  0  0  0  0  0
  -12.5692   -1.9346  -13.1614 O   0  0  0  0  0  0  0  0  0  0  0  0
  -13.9982   -2.2967  -13.6034 P   0  0  1  0  0  5  0  0  0  0  0  0
  -14.2434   -1.4543  -15.0582 O   0  0  0  0  0  0  0  0  0  0  0  0
  -14.0406   -3.9976  -13.9279 N   0  0  0  0  0  0  0  0  0  0  0  0
  -15.0186   -1.7749  -12.4051 O   0  0  0  0  0  0  0  0  0  0  0  0
  -15.6333   -2.7831  -11.6691 C   0  0  0  0  0  0  0  0  0  0  0  0
  -16.7069   -2.2546  -10.7791 C   0  0  2  0  0  0  0  0  0  0  0  0
  -17.9521   -1.7880  -11.4995 C   0  0  1  0  0  0  0  0  0  0  0  0
  -18.8154   -2.8606  -11.7478 O   0  0  0  0  0  0  0  0  0  0  0  0
  -18.5878   -0.9475  -10.4058 C   0  0  1  0  0  0  0  0  0  0  0  0
  -19.3477   -1.8177   -9.5992 O   0  0  0  0  0  0  0  0  0  0  0  0
  -17.3967   -0.5078   -9.5976 C   0  0  1  0  0  0  0  0  0  0  0  0
  -16.2605   -1.1154  -10.1259 O   0  0  0  0  0  0  0  0  0  0  0  0
  -17.2076    0.9129   -9.5867 N   0  0  0  0  0  0  0  0  0  0  0  0
  -17.8090    1.8349   -8.8219 C   0  0  0  0  0  0  0  0  0  0  0  0
  -17.3000    3.0883   -9.1467 C   0  0  0  0  0  0  0  0  0  0  0  0
  -16.3859    2.8732  -10.1224 N   0  0  0  0  0  0  0  0  0  0  0  0
  -16.3458    1.5710  -10.3700 C   0  0  0  0  0  0  0  0  0  0  0  0
  -18.7372    1.7782   -7.8753 N   0  0  0  0  0  0  0  0  0  0  0  0
  -19.2097    2.8465   -7.2168 C   0  0  0  0  0  0  0  0  0  0  0  0
  -18.7094    4.0577   -7.5381 N   0  0  0  0  0  0  0  0  0  0  0  0
  -17.7665    4.1998   -8.4870 C   0  0  0  0  0  0  0  0  0  0  0  0
  -17.2704    5.4860   -8.7826 N   0  0  0  0  0  0  0  0  0  0  0  0
  -24.3680   -7.1744   -6.8927 H   0  0  0  0  0  0  0  0  0  0  0  0
  1  2  1  0
  4  1  1  0
  2  3  2  0
  4  5  1  1
  9  4  1  0
  5  6  1  0
  6  7  1  0
  7  8  1  0
  9 10  2  0
 11  9  1  0
 12 11  1  0
 13 12  1  0
 12 15  1  1
 13 14  2  0
 22 13  1  0
 15 16  1  0
 16 17  1  0
 17 18  1  0
 18 19  1  0
 19 20  1  0
 19 21  2  0
 23 22  1  1
 24 23  1  0
 23 26  1  0
 24 25  2  0
 29 24  1  0
 26 27  1  0
 26 28  1  1
 30 29  1  0
 31 30  1  0
 31 32  2  0
 33 31  1  0
 34 33  1  0
 35 34  1  0
 34 37  1  6
 35 36  2  0
 41 35  1  0
 37 38  1  0
 38 39  2  0
 38 40  1  0
 42 41  1  0
 43 42  1  0
 42 45  1  6
 43 44  2  0
 46 43  1  0
 47 46  1  0
 48 47  1  0
 47 50  1  6
 48 49  2  0
 57 48  1  0
 50 51  1  0
 51 52  2  0
 51 53  1  0
 55 54  2  0
 55 56  1  6
 55 57  1  0
 55 58  1  0
 58 59  1  0
 60 59  1  6
 60 61  1  0
 60 66  1  0
 61 62  1  1
 61 63  1  0
 63 64  1  1
 63 65  1  0
 65 66  1  0
 65 67  1  6
 67 68  1  0
 67 71  1  0
 68 69  2  0
 68 72  1  0
 69 70  1  0
 69 75  1  0
 70 71  2  0
 72 73  2  0
 73 74  1  0
 74 75  2  0
 75 76  1  0
 21 77  1  0
M  END
$$$$
