
     RDKit          3D

 77 79  0  0  0  0  0  0  0  0999 V2000
  -18.4830    0.7548  -32.3208 N   0  0  0  0  0  0  0  0  0  0  0  0
  -19.6387    1.4977  -32.0983 C   0  0  0  0  0  0  0  0  0  0  0  0
  -20.3558    1.3941  -31.0606 O   0  0  0  0  0  0  0  0  0  0  0  0
  -18.1621    0.3107  -33.7073 C   0  0  1  0  0  0  0  0  0  0  0  0
  -18.6495   -1.0948  -33.8538 C   0  0  0  0  0  0  0  0  0  0  0  0
  -18.4906   -1.7009  -35.2132 C   0  0  0  0  0  0  0  0  0  0  0  0
  -19.1388   -3.3543  -35.3942 S   0  0  0  0  0  0  0  0  0  0  0  0
  -20.6952   -3.7163  -34.6292 C   0  0  0  0  0  0  0  0  0  0  0  0
  -18.8845    1.3092  -34.5497 C   0  0  0  0  0  0  0  0  0  0  0  0
  -18.3245    2.4545  -34.7413 O   0  0  0  0  0  0  0  0  0  0  0  0
  -20.1223    1.1556  -35.1772 N   0  0  0  0  0  0  0  0  0  0  0  0
  -20.8733    2.2458  -35.8263 C   0  0  2  0  0  0  0  0  0  0  0  0
  -19.9204    3.3291  -36.2338 C   0  0  0  0  0  0  0  0  0  0  0  0
  -20.2655    4.0979  -37.1805 O   0  0  0  0  0  0  0  0  0  0  0  0
  -21.8372    2.8057  -34.8281 C   0  0  0  0  0  0  0  0  0  0  0  0
  -22.8790    1.8333  -34.3335 C   0  0  0  0  0  0  0  0  0  0  0  0
  -24.1241    2.6096  -33.9708 C   0  0  0  0  0  0  0  0  0  0  0  0
  -25.1485    1.7520  -33.3947 N   0  0  0  0  0  0  0  0  0  0  0  0
  -24.8119    0.8448  -32.3614 C   0  0  0  0  0  0  0  0  0  0  0  0
  -25.7772    0.6367  -31.3385 N   0  0  0  0  0  0  0  0  0  0  0  0
  -23.6997    0.2119  -32.3045 N   0  0  0  0  0  0  0  0  0  0  0  0
  -18.6654    3.5250  -35.6131 N   0  0  0  0  0  0  0  0  0  0  0  0
  -17.7236    4.5767  -36.0011 C   0  0  2  0  0  0  0  0  0  0  0  0
  -16.3645    4.0586  -36.0884 C   0  0  0  0  0  0  0  0  0  0  0  0
  -15.4282    4.6062  -36.7367 O   0  0  0  0  0  0  0  0  0  0  0  0
  -17.9024    5.8018  -35.1714 C   0  0  2  0  0  0  0  0  0  0  0  0
  -17.0825    5.8638  -34.0581 O   0  0  0  0  0  0  0  0  0  0  0  0
  -19.3403    5.9540  -34.6941 C   0  0  0  0  0  0  0  0  0  0  0  0
  -15.9919    2.8506  -35.4113 N   0  0  0  0  0  0  0  0  0  0  0  0
  -14.7163    2.2387  -35.6109 C   0  0  0  0  0  0  0  0  0  0  0  0
  -14.4912    1.5531  -36.8727 C   0  0  0  0  0  0  0  0  0  0  0  0
  -13.4822    0.8382  -37.0515 O   0  0  0  0  0  0  0  0  0  0  0  0
  -15.4279    1.6851  -37.9224 N   0  0  0  0  0  0  0  0  0  0  0  0
  -15.5244    0.8604  -39.0854 C   0  0  2  0  0  0  0  0  0  0  0  0
  -14.7891    1.4603  -40.2022 C   0  0  0  0  0  0  0  0  0  0  0  0
  -15.4261    2.1642  -41.0352 O   0  0  0  0  0  0  0  0  0  0  0  0
  -16.9912    0.6327  -39.4608 C   0  0  0  0  0  0  0  0  0  0  0  0
  -17.7059    1.9379  -39.4582 C   0  0  0  0  0  0  0  0  0  0  0  0
  -18.2698    2.3267  -38.4211 O   0  0  0  0  0  0  0  0  0  0  0  0
  -17.7578    2.7493  -40.6177 N   0  0  0  0  0  0  0  0  0  0  0  0
  -13.4012    1.2623  -40.3578 N   0  0  0  0  0  0  0  0  0  0  0  0
  -12.8238    1.8129  -41.5902 C   0  0  2  0  0  0  0  0  0  0  0  0
  -12.9580    3.3045  -41.4782 C   0  0  0  0  0  0  0  0  0  0  0  0
  -12.2606    4.0361  -42.1811 O   0  0  0  0  0  0  0  0  0  0  0  0
  -13.5661    1.3472  -42.7925 C   0  0  0  0  0  0  0  0  0  0  0  0
  -13.9000    3.8716  -40.5622 N   0  0  0  0  0  0  0  0  0  0  0  0
  -13.9929    5.2894  -40.4711 C   0  0  2  0  0  0  0  0  0  0  0  0
  -12.7379    6.0350  -40.3875 C   0  0  0  0  0  0  0  0  0  0  0  0
  -12.8431    7.3131  -40.3806 O   0  0  0  0  0  0  0  0  0  0  0  0
  -14.9464    5.6009  -39.3079 C   0  0  0  0  0  0  0  0  0  0  0  0
  -16.3300    5.6974  -39.7669 C   0  0  0  0  0  0  0  0  0  0  0  0
  -17.3642    5.7307  -39.0389 O   0  0  0  0  0  0  0  0  0  0  0  0
  -16.5286    5.7582  -41.1567 O   0  0  0  0  0  0  0  0  0  0  0  0
   -9.1631    5.8418  -39.0731 O   0  0  0  0  0  0  0  0  0  0  0  0
  -10.0447    6.4115  -40.1984 P   0  0  1  0  0  5  0  0  0  0  0  0
   -9.1281    6.2346  -41.6178 O   0  0  0  0  0  0  0  0  0  0  0  0
  -11.4603    5.4206  -40.3196 N   0  0  0  0  0  0  0  0  0  0  0  0
  -10.3206    8.0052  -39.8329 O   0  0  0  0  0  0  0  0  0  0  0  0
   -9.2227    8.6971  -39.3313 C   0  0  0  0  0  0  0  0  0  0  0  0
   -9.4599   10.1686  -39.2827 C   0  0  2  0  0  0  0  0  0  0  0  0
   -9.0215   10.9205  -40.5196 C   0  0  1  0  0  0  0  0  0  0  0  0
  -10.0171   10.8869  -41.5020 O   0  0  0  0  0  0  0  0  0  0  0  0
   -8.9868   12.3349  -39.9676 C   0  0  1  0  0  0  0  0  0  0  0  0
  -10.2904   12.8582  -40.0784 O   0  0  0  0  0  0  0  0  0  0  0  0
   -8.7144   12.1084  -38.5048 C   0  0  1  0  0  0  0  0  0  0  0  0
   -8.7019   10.7359  -38.2692 O   0  0  0  0  0  0  0  0  0  0  0  0
   -7.4738   12.6725  -38.0614 N   0  0  0  0  0  0  0  0  0  0  0  0
   -7.2688   13.7357  -37.2713 C   0  0  0  0  0  0  0  0  0  0  0  0
   -5.8993   13.9065  -37.0956 C   0  0  0  0  0  0  0  0  0  0  0  0
   -5.3103   12.9149  -37.8052 N   0  0  0  0  0  0  0  0  0  0  0  0
   -6.2654   12.1908  -38.3729 C   0  0  0  0  0  0  0  0  0  0  0  0
   -8.0754   14.5977  -36.6653 N   0  0  0  0  0  0  0  0  0  0  0  0
   -7.6546   15.6144  -35.8989 C   0  0  0  0  0  0  0  0  0  0  0  0
   -6.3247   15.7714  -35.7337 N   0  0  0  0  0  0  0  0  0  0  0  0
   -5.4410   14.9401  -36.3147 C   0  0  0  0  0  0  0  0  0  0  0  0
   -4.0611   15.1417  -36.1068 N   0  0  0  0  0  0  0  0  0  0  0  0
  -23.5594   -0.5068  -31.5671 H   0  0  0  0  0  0  0  0  0  0  0  0
  1  2  1  0
  4  1  1  0
  2  3  2  0
  4  5  1  1
  9  4  1  0
  5  6  1  0
  6  7  1  0
  7  8  1  0
  9 10  2  0
 11  9  1  0
 12 11  1  0
 13 12  1  0
 12 15  1  1
 13 14  2  0
 22 13  1  0
 15 16  1  0
 16 17  1  0
 17 18  1  0
 18 19  1  0
 19 20  1  0
 19 21  2  0
 23 22  1  1
 24 23  1  0
 23 26  1  0
 24 25  2  0
 29 24  1  0
 26 27  1  0
 26 28  1  1
 30 29  1  0
 31 30  1  0
 31 32  2  0
 33 31  1  0
 34 33  1  0
 35 34  1  0
 34 37  1  6
 35 36  2  0
 41 35  1  0
 37 38  1  0
 38 39  2  0
 38 40  1  0
 42 41  1  0
 43 42  1  0
 42 45  1  6
 43 44  2  0
 46 43  1  0
 47 46  1  0
 48 47  1  0
 47 50  1  1
 48 49  2  0
 57 48  1  0
 50 51  1  0
 51 52  2  0
 51 53  1  0
 55 54  2  0
 55 56  1  6
 55 57  1  0
 55 58  1  0
 58 59  1  0
 60 59  1  6
 60 61  1  0
 60 66  1  0
 61 62  1  6
 61 63  1  0
 63 64  1  1
 63 65  1  0
 65 66  1  0
 65 67  1  6
 67 68  1  0
 67 71  1  0
 68 69  2  0
 68 72  1  0
 69 70  1  0
 69 75  1  0
 70 71  2  0
 72 73  2  0
 73 74  1  0
 74 75  2  0
 75 76  1  0
 21 77  1  0
M  END
$$$$
