
     RDKit          3D

 77 79  0  0  0  0  0  0  0  0999 V2000
  -13.7899   11.9968  -39.2366 N   0  0  0  0  0  0  0  0  0  0  0  0
  -13.0629   13.1478  -38.9472 C   0  0  0  0  0  0  0  0  0  0  0  0
  -11.9268   13.1439  -38.3896 O   0  0  0  0  0  0  0  0  0  0  0  0
  -13.1795   10.6650  -38.9606 C   0  0  1  0  0  0  0  0  0  0  0  0
  -11.8022   10.6721  -39.5415 C   0  0  0  0  0  0  0  0  0  0  0  0
  -11.0436    9.3861  -39.4345 C   0  0  0  0  0  0  0  0  0  0  0  0
   -9.3621    9.4379  -40.0314 S   0  0  0  0  0  0  0  0  0  0  0  0
   -8.4236    7.9363  -39.9787 C   0  0  0  0  0  0  0  0  0  0  0  0
  -13.2244   10.5832  -37.4707 C   0  0  0  0  0  0  0  0  0  0  0  0
  -12.1283   10.7829  -36.8222 O   0  0  0  0  0  0  0  0  0  0  0  0
  -14.3340   10.3140  -36.6670 N   0  0  0  0  0  0  0  0  0  0  0  0
  -14.2955   10.1985  -35.1976 C   0  0  2  0  0  0  0  0  0  0  0  0
  -13.4410    9.0275  -34.8151 C   0  0  0  0  0  0  0  0  0  0  0  0
  -13.0906    8.9196  -33.6019 O   0  0  0  0  0  0  0  0  0  0  0  0
  -15.6898    9.9530  -34.7133 C   0  0  0  0  0  0  0  0  0  0  0  0
  -16.7363   10.8731  -35.2911 C   0  0  0  0  0  0  0  0  0  0  0  0
  -18.0985   10.3759  -34.8648 C   0  0  0  0  0  0  0  0  0  0  0  0
  -19.1648   11.2458  -35.3368 N   0  0  0  0  0  0  0  0  0  0  0  0
  -19.4912   11.2808  -36.7138 C   0  0  0  0  0  0  0  0  0  0  0  0
  -19.4692   10.0464  -37.4191 N   0  0  0  0  0  0  0  0  0  0  0  0
  -19.8015   12.3516  -37.3446 N   0  0  0  0  0  0  0  0  0  0  0  0
  -13.0133    8.0502  -35.7428 N   0  0  0  0  0  0  0  0  0  0  0  0
  -11.7674    7.2933  -35.6076 C   0  0  2  0  0  0  0  0  0  0  0  0
  -11.8498    6.3377  -34.5106 C   0  0  0  0  0  0  0  0  0  0  0  0
  -11.2730    6.4750  -33.3947 O   0  0  0  0  0  0  0  0  0  0  0  0
  -10.5803    8.1943  -35.5996 C   0  0  2  0  0  0  0  0  0  0  0  0
   -9.3875    7.5668  -35.2848 O   0  0  0  0  0  0  0  0  0  0  0  0
  -10.7605    9.3550  -34.6306 C   0  0  0  0  0  0  0  0  0  0  0  0
  -12.6269    5.1388  -34.6350 N   0  0  0  0  0  0  0  0  0  0  0  0
  -13.5972    4.7657  -33.6549 C   0  0  0  0  0  0  0  0  0  0  0  0
  -14.4077    3.5901  -33.9268 C   0  0  0  0  0  0  0  0  0  0  0  0
  -15.4322    3.3395  -33.2570 O   0  0  0  0  0  0  0  0  0  0  0  0
  -14.0433    2.7099  -34.9704 N   0  0  0  0  0  0  0  0  0  0  0  0
  -14.8406    2.3556  -36.1021 C   0  0  2  0  0  0  0  0  0  0  0  0
  -14.7702    3.4010  -37.1267 C   0  0  0  0  0  0  0  0  0  0  0  0
  -15.0332    4.5906  -36.7940 O   0  0  0  0  0  0  0  0  0  0  0  0
  -16.2909    2.1064  -35.6791 C   0  0  0  0  0  0  0  0  0  0  0  0
  -16.6989    3.1440  -34.6936 C   0  0  0  0  0  0  0  0  0  0  0  0
  -16.1474    4.2577  -34.7112 O   0  0  0  0  0  0  0  0  0  0  0  0
  -17.7063    2.8878  -33.7317 N   0  0  0  0  0  0  0  0  0  0  0  0
  -14.4209    3.0997  -38.4597 N   0  0  0  0  0  0  0  0  0  0  0  0
  -13.3897    3.9633  -39.0479 C   0  0  2  0  0  0  0  0  0  0  0  0
  -12.9331    3.2681  -40.2983 C   0  0  0  0  0  0  0  0  0  0  0  0
  -12.0114    3.7441  -40.9614 O   0  0  0  0  0  0  0  0  0  0  0  0
  -12.2296    4.1252  -38.1307 C   0  0  0  0  0  0  0  0  0  0  0  0
  -13.5634    2.0516  -40.7118 N   0  0  0  0  0  0  0  0  0  0  0  0
  -13.1681    1.4652  -41.9474 C   0  0  2  0  0  0  0  0  0  0  0  0
  -13.8437    0.2311  -42.3453 C   0  0  0  0  0  0  0  0  0  0  0  0
  -14.1223   -0.5875  -41.3981 O   0  0  0  0  0  0  0  0  0  0  0  0
  -11.6399    1.3169  -41.9029 C   0  0  0  0  0  0  0  0  0  0  0  0
  -11.2037    0.6855  -40.6598 C   0  0  0  0  0  0  0  0  0  0  0  0
  -11.6879    0.8786  -39.5070 O   0  0  0  0  0  0  0  0  0  0  0  0
  -10.1390   -0.2263  -40.7576 O   0  0  0  0  0  0  0  0  0  0  0  0
  -15.9189    0.2420  -45.6614 O   0  0  0  0  0  0  0  0  0  0  0  0
  -15.1300    1.0402  -44.6083 P   0  0  1  0  0  5  0  0  0  0  0  0
  -16.3069    1.7287  -43.5949 O   0  0  0  0  0  0  0  0  0  0  0  0
  -14.1855   -0.0819  -43.6868 N   0  0  0  0  0  0  0  0  0  0  0  0
  -14.2656    2.1937  -45.4278 O   0  0  0  0  0  0  0  0  0  0  0  0
  -14.8594    2.6610  -46.5961 C   0  0  0  0  0  0  0  0  0  0  0  0
  -14.0695    3.7563  -47.2289 C   0  0  2  0  0  0  0  0  0  0  0  0
  -14.8939    4.7752  -47.9836 C   0  0  1  0  0  0  0  0  0  0  0  0
  -15.3863    5.7576  -47.1175 O   0  0  0  0  0  0  0  0  0  0  0  0
  -13.8058    5.4237  -48.8214 C   0  0  1  0  0  0  0  0  0  0  0  0
  -13.2225    6.4374  -48.0357 O   0  0  0  0  0  0  0  0  0  0  0  0
  -12.7936    4.3179  -48.9553 C   0  0  1  0  0  0  0  0  0  0  0  0
  -13.2288    3.2321  -48.1995 O   0  0  0  0  0  0  0  0  0  0  0  0
  -12.5861    3.8950  -50.3089 N   0  0  0  0  0  0  0  0  0  0  0  0
  -11.5475    4.1465  -51.1180 C   0  0  0  0  0  0  0  0  0  0  0  0
  -11.7691    3.5197  -52.3401 C   0  0  0  0  0  0  0  0  0  0  0  0
  -12.9656    2.8964  -52.2229 N   0  0  0  0  0  0  0  0  0  0  0  0
  -13.4358    3.1322  -51.0056 C   0  0  0  0  0  0  0  0  0  0  0  0
  -10.4219    4.8354  -50.9791 N   0  0  0  0  0  0  0  0  0  0  0  0
   -9.4918    4.9622  -51.9367 C   0  0  0  0  0  0  0  0  0  0  0  0
   -9.7151    4.3501  -53.1182 N   0  0  0  0  0  0  0  0  0  0  0  0
  -10.8318    3.6331  -53.3386 C   0  0  0  0  0  0  0  0  0  0  0  0
  -11.0167    3.0067  -54.5880 N   0  0  0  0  0  0  0  0  0  0  0  0
  -19.7461   13.2661  -36.8542 H   0  0  0  0  0  0  0  0  0  0  0  0
  1  2  1  0
  4  1  1  0
  2  3  2  0
  4  5  1  1
  9  4  1  0
  5  6  1  0
  6  7  1  0
  7  8  1  0
  9 10  2  0
 11  9  1  0
 12 11  1  0
 13 12  1  0
 12 15  1  6
 13 14  2  0
 22 13  1  0
 15 16  1  0
 16 17  1  0
 17 18  1  0
 18 19  1  0
 19 20  1  0
 19 21  2  0
 23 22  1  1
 24 23  1  0
 23 26  1  0
 24 25  2  0
 29 24  1  0
 26 27  1  0
 26 28  1  1
 30 29  1  0
 31 30  1  0
 31 32  2  0
 33 31  1  0
 34 33  1  0
 35 34  1  0
 34 37  1  1
 35 36  2  0
 41 35  1  0
 37 38  1  0
 38 39  2  0
 38 40  1  0
 42 41  1  0
 43 42  1  0
 42 45  1  1
 43 44  2  0
 46 43  1  0
 47 46  1  0
 48 47  1  0
 47 50  1  1
 48 49  2  0
 57 48  1  0
 50 51  1  0
 51 52  2  0
 51 53  1  0
 55 54  2  0
 55 56  1  1
 55 57  1  0
 55 58  1  0
 58 59  1  0
 60 59  1  6
 60 61  1  0
 60 66  1  0
 61 62  1  1
 61 63  1  0
 63 64  1  1
 63 65  1  0
 65 66  1  0
 65 67  1  6
 67 68  1  0
 67 71  1  0
 68 69  2  0
 68 72  1  0
 69 70  1  0
 69 75  1  0
 70 71  2  0
 72 73  2  0
 73 74  1  0
 74 75  2  0
 75 76  1  0
 21 77  1  0
M  END
$$$$
