
     RDKit          3D

 77 79  0  0  0  0  0  0  0  0999 V2000
   -8.5066   10.3675  -40.6539 N   0  0  0  0  0  0  0  0  0  0  0  0
   -9.8550   10.6956  -40.7591 C   0  0  0  0  0  0  0  0  0  0  0  0
  -10.5533   10.4894  -41.7943 O   0  0  0  0  0  0  0  0  0  0  0  0
   -7.8127   10.5614  -39.3488 C   0  0  1  0  0  0  0  0  0  0  0  0
   -7.9508   12.0022  -38.9754 C   0  0  0  0  0  0  0  0  0  0  0  0
   -7.0440   12.9513  -39.6948 C   0  0  0  0  0  0  0  0  0  0  0  0
   -7.1708   14.6597  -39.1927 S   0  0  0  0  0  0  0  0  0  0  0  0
   -5.9723   15.7966  -39.8326 C   0  0  0  0  0  0  0  0  0  0  0  0
   -8.5335    9.6146  -38.4474 C   0  0  0  0  0  0  0  0  0  0  0  0
   -8.0834    9.4617  -37.2490 O   0  0  0  0  0  0  0  0  0  0  0  0
   -9.6669    8.8549  -38.7435 N   0  0  0  0  0  0  0  0  0  0  0  0
  -10.3354    7.9439  -37.7963 C   0  0  2  0  0  0  0  0  0  0  0  0
  -10.3377    6.5557  -38.3625 C   0  0  0  0  0  0  0  0  0  0  0  0
  -10.3688    6.4290  -39.6233 O   0  0  0  0  0  0  0  0  0  0  0  0
  -11.7520    8.3980  -37.6347 C   0  0  0  0  0  0  0  0  0  0  0  0
  -12.0135    9.2482  -36.4163 C   0  0  0  0  0  0  0  0  0  0  0  0
  -13.4793    9.6166  -36.3957 C   0  0  0  0  0  0  0  0  0  0  0  0
  -13.6945   10.9523  -35.8607 N   0  0  0  0  0  0  0  0  0  0  0  0
  -13.6010   12.0787  -36.7130 C   0  0  0  0  0  0  0  0  0  0  0  0
  -13.2791   11.8376  -38.0767 N   0  0  0  0  0  0  0  0  0  0  0  0
  -13.7906   13.2839  -36.3227 N   0  0  0  0  0  0  0  0  0  0  0  0
  -10.3085    5.3947  -37.5564 N   0  0  0  0  0  0  0  0  0  0  0  0
  -10.3509    4.0331  -38.0928 C   0  0  2  0  0  0  0  0  0  0  0  0
  -11.7204    3.5412  -38.1694 C   0  0  0  0  0  0  0  0  0  0  0  0
  -12.6282    3.8132  -37.3335 O   0  0  0  0  0  0  0  0  0  0  0  0
   -9.3764    3.1436  -37.3998 C   0  0  2  0  0  0  0  0  0  0  0  0
   -9.4346    1.8169  -37.7899 O   0  0  0  0  0  0  0  0  0  0  0  0
   -9.5501    3.1875  -35.8876 C   0  0  0  0  0  0  0  0  0  0  0  0
  -12.1380    2.6896  -39.2451 N   0  0  0  0  0  0  0  0  0  0  0  0
  -13.4491    2.1237  -39.2915 C   0  0  0  0  0  0  0  0  0  0  0  0
  -14.1266    1.8959  -38.0258 C   0  0  0  0  0  0  0  0  0  0  0  0
  -14.8098    2.7916  -37.4854 O   0  0  0  0  0  0  0  0  0  0  0  0
  -14.0228    0.6393  -37.3879 N   0  0  0  0  0  0  0  0  0  0  0  0
  -15.0594   -0.0440  -36.6804 C   0  0  2  0  0  0  0  0  0  0  0  0
  -16.1441    0.8810  -36.3402 C   0  0  0  0  0  0  0  0  0  0  0  0
  -15.9044    2.1210  -36.3484 O   0  0  0  0  0  0  0  0  0  0  0  0
  -14.4993   -0.7107  -35.4211 C   0  0  0  0  0  0  0  0  0  0  0  0
  -13.1738   -0.1155  -35.0998 C   0  0  0  0  0  0  0  0  0  0  0  0
  -12.5352   -0.5328  -34.1186 O   0  0  0  0  0  0  0  0  0  0  0  0
  -12.6227    0.9212  -35.8917 N   0  0  0  0  0  0  0  0  0  0  0  0
  -17.4315    0.4111  -36.0061 N   0  0  0  0  0  0  0  0  0  0  0  0
  -18.3156    1.3998  -35.3767 C   0  0  2  0  0  0  0  0  0  0  0  0
  -19.2809    1.8288  -36.4442 C   0  0  0  0  0  0  0  0  0  0  0  0
  -19.7937    2.9469  -36.3921 O   0  0  0  0  0  0  0  0  0  0  0  0
  -17.5534    2.5872  -34.9053 C   0  0  0  0  0  0  0  0  0  0  0  0
  -19.5962    0.9422  -37.5225 N   0  0  0  0  0  0  0  0  0  0  0  0
  -18.9968    1.1743  -38.7928 C   0  0  2  0  0  0  0  0  0  0  0  0
  -17.6767    0.5893  -39.0232 C   0  0  0  0  0  0  0  0  0  0  0  0
  -16.7534    1.4070  -39.3748 O   0  0  0  0  0  0  0  0  0  0  0  0
  -19.0223    2.6919  -39.0284 C   0  0  0  0  0  0  0  0  0  0  0  0
  -20.3357    3.2545  -38.7237 C   0  0  0  0  0  0  0  0  0  0  0  0
  -20.6563    4.4780  -38.7546 O   0  0  0  0  0  0  0  0  0  0  0  0
  -21.3410    2.3428  -38.3593 O   0  0  0  0  0  0  0  0  0  0  0  0
  -16.6965   -3.1666  -39.8264 O   0  0  0  0  0  0  0  0  0  0  0  0
  -16.8350   -1.6940  -40.2514 P   0  0  1  0  0  5  0  0  0  0  0  0
  -18.0453   -1.6845  -41.4436 O   0  0  0  0  0  0  0  0  0  0  0  0
  -17.3930   -0.7941  -38.8807 N   0  0  0  0  0  0  0  0  0  0  0  0
  -15.3636   -1.2283  -40.8577 O   0  0  0  0  0  0  0  0  0  0  0  0
  -15.3912   -0.7112  -42.1491 C   0  0  0  0  0  0  0  0  0  0  0  0
  -14.0329   -0.3262  -42.6296 C   0  0  2  0  0  0  0  0  0  0  0  0
  -13.3197    0.6872  -41.7626 C   0  0  1  0  0  0  0  0  0  0  0  0
  -12.6629    0.0585  -40.6991 O   0  0  0  0  0  0  0  0  0  0  0  0
  -12.2499    1.1555  -42.7335 C   0  0  1  0  0  0  0  0  0  0  0  0
  -11.1672    0.2604  -42.6251 O   0  0  0  0  0  0  0  0  0  0  0  0
  -12.8974    0.9205  -44.0717 C   0  0  1  0  0  0  0  0  0  0  0  0
  -14.1291    0.3061  -43.8603 O   0  0  0  0  0  0  0  0  0  0  0  0
  -13.0952    2.1214  -44.8286 N   0  0  0  0  0  0  0  0  0  0  0  0
  -12.4551    2.5346  -45.9314 C   0  0  0  0  0  0  0  0  0  0  0  0
  -12.9913    3.7548  -46.3304 C   0  0  0  0  0  0  0  0  0  0  0  0
  -13.9610    4.0432  -45.4303 N   0  0  0  0  0  0  0  0  0  0  0  0
  -14.0070    3.0578  -44.5440 C   0  0  0  0  0  0  0  0  0  0  0  0
  -11.4712    2.0298  -46.6649 N   0  0  0  0  0  0  0  0  0  0  0  0
  -10.9672    2.6184  -47.7593 C   0  0  0  0  0  0  0  0  0  0  0  0
  -11.4942    3.8010  -48.1388 N   0  0  0  0  0  0  0  0  0  0  0  0
  -12.4935    4.3795  -47.4486 C   0  0  0  0  0  0  0  0  0  0  0  0
  -13.0153    5.6131  -47.8890 N   0  0  0  0  0  0  0  0  0  0  0  0
  -14.0502   13.4642  -35.3328 H   0  0  0  0  0  0  0  0  0  0  0  0
  1  2  1  0
  4  1  1  0
  2  3  2  0
  4  5  1  1
  9  4  1  0
  5  6  1  0
  6  7  1  0
  7  8  1  0
  9 10  2  0
 11  9  1  0
 12 11  1  0
 13 12  1  0
 12 15  1  6
 13 14  2  0
 22 13  1  0
 15 16  1  0
 16 17  1  0
 17 18  1  0
 18 19  1  0
 19 20  1  0
 19 21  2  0
 23 22  1  1
 24 23  1  0
 23 26  1  0
 24 25  2  0
 29 24  1  0
 26 27  1  0
 26 28  1  1
 30 29  1  0
 31 30  1  0
 31 32  2  0
 33 31  1  0
 34 33  1  0
 35 34  1  0
 34 37  1  1
 35 36  2  0
 41 35  1  0
 37 38  1  0
 38 39  2  0
 38 40  1  0
 42 41  1  0
 43 42  1  0
 42 45  1  6
 43 44  2  0
 46 43  1  0
 47 46  1  0
 48 47  1  0
 47 50  1  1
 48 49  2  0
 57 48  1  0
 50 51  1  0
 51 52  2  0
 51 53  1  0
 55 54  2  0
 55 56  1  6
 55 57  1  0
 55 58  1  0
 58 59  1  0
 60 59  1  1
 60 61  1  0
 60 66  1  0
 61 62  1  1
 61 63  1  0
 63 64  1  6
 63 65  1  0
 65 66  1  0
 65 67  1  1
 67 68  1  0
 67 71  1  0
 68 69  2  0
 68 72  1  0
 69 70  1  0
 69 75  1  0
 70 71  2  0
 72 73  2  0
 73 74  1  0
 74 75  2  0
 75 76  1  0
 21 77  1  0
M  END
$$$$
