
     RDKit          3D

 77 79  0  0  0  0  0  0  0  0999 V2000
  -17.8174   12.9071  -36.7384 N   0  0  0  0  0  0  0  0  0  0  0  0
  -19.0128   12.3107  -36.3481 C   0  0  0  0  0  0  0  0  0  0  0  0
  -19.5953   11.3999  -37.0058 O   0  0  0  0  0  0  0  0  0  0  0  0
  -16.8644   13.3744  -35.6917 C   0  0  1  0  0  0  0  0  0  0  0  0
  -17.0366   12.4898  -34.4991 C   0  0  0  0  0  0  0  0  0  0  0  0
  -17.4754   13.1713  -33.2406 C   0  0  0  0  0  0  0  0  0  0  0  0
  -17.6229   12.1143  -31.8097 S   0  0  0  0  0  0  0  0  0  0  0  0
  -16.5992   12.4766  -30.4100 C   0  0  0  0  0  0  0  0  0  0  0  0
  -15.5407   13.2503  -36.3707 C   0  0  0  0  0  0  0  0  0  0  0  0
  -15.5038   13.3943  -37.6513 O   0  0  0  0  0  0  0  0  0  0  0  0
  -14.3022   12.9945  -35.7790 N   0  0  0  0  0  0  0  0  0  0  0  0
  -13.0527   12.7515  -36.5231 C   0  0  2  0  0  0  0  0  0  0  0  0
  -12.4748   11.4334  -36.1031 C   0  0  0  0  0  0  0  0  0  0  0  0
  -12.2660   11.2437  -34.8674 O   0  0  0  0  0  0  0  0  0  0  0  0
  -12.0826   13.8346  -36.1703 C   0  0  0  0  0  0  0  0  0  0  0  0
  -10.6394   13.5230  -36.4799 C   0  0  0  0  0  0  0  0  0  0  0  0
   -9.7962   14.7105  -36.0756 C   0  0  0  0  0  0  0  0  0  0  0  0
   -8.9287   15.1521  -37.1569 N   0  0  0  0  0  0  0  0  0  0  0  0
   -8.0019   14.2501  -37.7327 C   0  0  0  0  0  0  0  0  0  0  0  0
   -8.0237   14.1101  -39.1474 N   0  0  0  0  0  0  0  0  0  0  0  0
   -7.1580   13.5668  -37.0534 N   0  0  0  0  0  0  0  0  0  0  0  0
  -12.1550   10.4053  -37.0192 N   0  0  0  0  0  0  0  0  0  0  0  0
  -12.7964    9.0892  -37.0183 C   0  0  2  0  0  0  0  0  0  0  0  0
  -12.6014    8.4090  -38.2921 C   0  0  0  0  0  0  0  0  0  0  0  0
  -13.4716    8.3325  -39.2052 O   0  0  0  0  0  0  0  0  0  0  0  0
  -14.2022    9.1684  -36.5299 C   0  0  2  0  0  0  0  0  0  0  0  0
  -14.3925   10.0410  -35.4725 O   0  0  0  0  0  0  0  0  0  0  0  0
  -14.7278    7.8047  -36.1025 C   0  0  0  0  0  0  0  0  0  0  0  0
  -11.3577    7.7648  -38.6002 N   0  0  0  0  0  0  0  0  0  0  0  0
  -11.2114    6.9175  -39.7412 C   0  0  0  0  0  0  0  0  0  0  0  0
  -12.1530    7.0955  -40.8342 C   0  0  0  0  0  0  0  0  0  0  0  0
  -11.9287    7.9064  -41.7579 O   0  0  0  0  0  0  0  0  0  0  0  0
  -13.3455    6.3381  -40.8665 N   0  0  0  0  0  0  0  0  0  0  0  0
  -13.4476    4.9150  -40.9460 C   0  0  2  0  0  0  0  0  0  0  0  0
  -13.3599    4.3189  -39.6100 C   0  0  0  0  0  0  0  0  0  0  0  0
  -12.8434    4.9983  -38.6790 O   0  0  0  0  0  0  0  0  0  0  0  0
  -12.3610    4.3501  -41.8650 C   0  0  0  0  0  0  0  0  0  0  0  0
  -12.9990    3.7583  -43.0720 C   0  0  0  0  0  0  0  0  0  0  0  0
  -14.2276    3.8614  -43.2297 O   0  0  0  0  0  0  0  0  0  0  0  0
  -12.2327    3.0765  -44.0485 N   0  0  0  0  0  0  0  0  0  0  0  0
  -13.8351    3.0154  -39.3554 N   0  0  0  0  0  0  0  0  0  0  0  0
  -15.2929    2.8926  -39.2328 C   0  0  2  0  0  0  0  0  0  0  0  0
  -15.8064    2.6644  -40.6254 C   0  0  0  0  0  0  0  0  0  0  0  0
  -16.8147    3.2566  -41.0106 O   0  0  0  0  0  0  0  0  0  0  0  0
  -15.8986    4.1382  -38.6897 C   0  0  0  0  0  0  0  0  0  0  0  0
  -15.1197    1.7668  -41.5034 N   0  0  0  0  0  0  0  0  0  0  0  0
  -15.3845    0.3722  -41.3954 C   0  0  2  0  0  0  0  0  0  0  0  0
  -14.5794   -0.5248  -42.2232 C   0  0  0  0  0  0  0  0  0  0  0  0
  -14.8197   -1.7777  -42.0919 O   0  0  0  0  0  0  0  0  0  0  0  0
  -16.8935    0.1857  -41.6136 C   0  0  0  0  0  0  0  0  0  0  0  0
  -17.2729   -1.2223  -41.5238 C   0  0  0  0  0  0  0  0  0  0  0  0
  -16.6600   -2.1282  -40.8879 O   0  0  0  0  0  0  0  0  0  0  0  0
  -18.4349   -1.6056  -42.2149 O   0  0  0  0  0  0  0  0  0  0  0  0
  -11.3181   -1.0475  -44.1005 O   0  0  0  0  0  0  0  0  0  0  0  0
  -12.8444   -1.2104  -44.2107 P   0  0  1  0  0  5  0  0  0  0  0  0
  -13.1672   -2.7850  -43.6606 O   0  0  0  0  0  0  0  0  0  0  0  0
  -13.5808   -0.0773  -43.1271 N   0  0  0  0  0  0  0  0  0  0  0  0
  -13.2337   -1.0207  -45.8114 O   0  0  0  0  0  0  0  0  0  0  0  0
  -12.3081   -0.3070  -46.5662 C   0  0  0  0  0  0  0  0  0  0  0  0
  -12.9237    0.8700  -47.2443 C   0  0  2  0  0  0  0  0  0  0  0  0
  -14.3930    0.7159  -47.5675 C   0  0  1  0  0  0  0  0  0  0  0  0
  -15.1841    1.0558  -46.4646 O   0  0  0  0  0  0  0  0  0  0  0  0
  -14.5538    1.8262  -48.5911 C   0  0  1  0  0  0  0  0  0  0  0  0
  -14.8072    3.0159  -47.8799 O   0  0  0  0  0  0  0  0  0  0  0  0
  -13.1709    1.9354  -49.1749 C   0  0  1  0  0  0  0  0  0  0  0  0
  -12.3341    1.0617  -48.4850 O   0  0  0  0  0  0  0  0  0  0  0  0
  -13.1166    1.6310  -50.5743 N   0  0  0  0  0  0  0  0  0  0  0  0
  -12.7472    2.4207  -51.5924 C   0  0  0  0  0  0  0  0  0  0  0  0
  -12.8363    1.6965  -52.7770 C   0  0  0  0  0  0  0  0  0  0  0  0
  -13.2687    0.4630  -52.4230 N   0  0  0  0  0  0  0  0  0  0  0  0
  -13.4296    0.4445  -51.1068 C   0  0  0  0  0  0  0  0  0  0  0  0
  -12.3388    3.6806  -51.6751 N   0  0  0  0  0  0  0  0  0  0  0  0
  -12.0080    4.2930  -52.8213 C   0  0  0  0  0  0  0  0  0  0  0  0
  -12.0969    3.5823  -53.9647 N   0  0  0  0  0  0  0  0  0  0  0  0
  -12.5030    2.2998  -53.9657 C   0  0  0  0  0  0  0  0  0  0  0  0
  -12.5733    1.5971  -55.1860 N   0  0  0  0  0  0  0  0  0  0  0  0
   -7.2464   13.5311  -36.0186 H   0  0  0  0  0  0  0  0  0  0  0  0
  1  2  1  0
  4  1  1  0
  2  3  2  0
  4  5  1  1
  9  4  1  0
  5  6  1  0
  6  7  1  0
  7  8  1  0
  9 10  2  0
 11  9  1  0
 12 11  1  0
 13 12  1  0
 12 15  1  1
 13 14  2  0
 22 13  1  0
 15 16  1  0
 16 17  1  0
 17 18  1  0
 18 19  1  0
 19 20  1  0
 19 21  2  0
 23 22  1  6
 24 23  1  0
 23 26  1  0
 24 25  2  0
 29 24  1  0
 26 27  1  0
 26 28  1  1
 30 29  1  0
 31 30  1  0
 31 32  2  0
 33 31  1  0
 34 33  1  0
 35 34  1  0
 34 37  1  6
 35 36  2  0
 41 35  1  0
 37 38  1  0
 38 39  2  0
 38 40  1  0
 42 41  1  0
 43 42  1  0
 42 45  1  6
 43 44  2  0
 46 43  1  0
 47 46  1  0
 48 47  1  0
 47 50  1  6
 48 49  2  0
 57 48  1  0
 50 51  1  0
 51 52  2  0
 51 53  1  0
 55 54  2  0
 55 56  1  1
 55 57  1  0
 55 58  1  0
 58 59  1  0
 60 59  1  6
 60 61  1  0
 60 66  1  0
 61 62  1  1
 61 63  1  0
 63 64  1  1
 63 65  1  0
 65 66  1  0
 65 67  1  6
 67 68  1  0
 67 71  1  0
 68 69  2  0
 68 72  1  0
 69 70  1  0
 69 75  1  0
 70 71  2  0
 72 73  2  0
 73 74  1  0
 74 75  2  0
 75 76  1  0
 21 77  1  0
M  END
$$$$
