
     RDKit          3D

 77 79  0  0  0  0  0  0  0  0999 V2000
  -17.4484   -0.2484  -36.1715 N   0  0  0  0  0  0  0  0  0  0  0  0
  -16.7900    0.6994  -36.9495 C   0  0  0  0  0  0  0  0  0  0  0  0
  -16.6250    0.5954  -38.1999 O   0  0  0  0  0  0  0  0  0  0  0  0
  -17.3197   -0.1849  -34.6877 C   0  0  1  0  0  0  0  0  0  0  0  0
  -16.1962   -1.0890  -34.2943 C   0  0  0  0  0  0  0  0  0  0  0  0
  -16.3571   -1.7959  -32.9847 C   0  0  0  0  0  0  0  0  0  0  0  0
  -14.9872   -2.8339  -32.5023 S   0  0  0  0  0  0  0  0  0  0  0  0
  -15.2818   -4.5757  -32.3687 C   0  0  0  0  0  0  0  0  0  0  0  0
  -17.0656    1.2651  -34.4398 C   0  0  0  0  0  0  0  0  0  0  0  0
  -16.0262    1.7974  -34.9861 O   0  0  0  0  0  0  0  0  0  0  0  0
  -17.8333    2.1440  -33.6732 N   0  0  0  0  0  0  0  0  0  0  0  0
  -17.6275    3.6028  -33.6141 C   0  0  2  0  0  0  0  0  0  0  0  0
  -16.1742    3.9066  -33.8227 C   0  0  0  0  0  0  0  0  0  0  0  0
  -15.5739    4.5767  -32.9300 O   0  0  0  0  0  0  0  0  0  0  0  0
  -18.0248    4.0742  -32.2508 C   0  0  0  0  0  0  0  0  0  0  0  0
  -18.2049    5.5662  -32.1198 C   0  0  0  0  0  0  0  0  0  0  0  0
  -18.7742    5.8610  -30.7510 C   0  0  0  0  0  0  0  0  0  0  0  0
  -18.8042    7.2888  -30.4730 N   0  0  0  0  0  0  0  0  0  0  0  0
  -19.7399    8.1186  -31.1363 C   0  0  0  0  0  0  0  0  0  0  0  0
  -20.8526    7.4820  -31.7511 N   0  0  0  0  0  0  0  0  0  0  0  0
  -19.6357    9.3932  -31.2072 N   0  0  0  0  0  0  0  0  0  0  0  0
  -15.4543    3.4823  -34.9631 N   0  0  0  0  0  0  0  0  0  0  0  0
  -14.0307    3.7535  -35.1712 C   0  0  2  0  0  0  0  0  0  0  0  0
  -13.6016    3.3206  -36.4947 C   0  0  0  0  0  0  0  0  0  0  0  0
  -12.4364    3.4775  -36.9581 O   0  0  0  0  0  0  0  0  0  0  0  0
  -13.2098    3.2649  -34.0273 C   0  0  2  0  0  0  0  0  0  0  0  0
  -13.5838    2.0232  -33.5436 O   0  0  0  0  0  0  0  0  0  0  0  0
  -13.2339    4.2412  -32.8589 C   0  0  0  0  0  0  0  0  0  0  0  0
  -14.5112    2.6584  -37.3840 N   0  0  0  0  0  0  0  0  0  0  0  0
  -15.0353    3.3067  -38.5443 C   0  0  0  0  0  0  0  0  0  0  0  0
  -14.5550    4.6466  -38.8387 C   0  0  0  0  0  0  0  0  0  0  0  0
  -15.3483    5.5946  -39.0206 O   0  0  0  0  0  0  0  0  0  0  0  0
  -13.1662    4.8952  -38.9170 N   0  0  0  0  0  0  0  0  0  0  0  0
  -12.5414    6.1394  -39.2390 C   0  0  2  0  0  0  0  0  0  0  0  0
  -12.6239    6.3973  -40.6793 C   0  0  0  0  0  0  0  0  0  0  0  0
  -12.3288    7.5497  -41.1037 O   0  0  0  0  0  0  0  0  0  0  0  0
  -11.0842    6.1448  -38.7688 C   0  0  0  0  0  0  0  0  0  0  0  0
  -10.4929    7.4868  -39.0214 C   0  0  0  0  0  0  0  0  0  0  0  0
  -11.2399    8.4708  -39.1575 O   0  0  0  0  0  0  0  0  0  0  0  0
   -9.0911    7.6668  -39.1110 N   0  0  0  0  0  0  0  0  0  0  0  0
  -13.0251    5.3914  -41.5831 N   0  0  0  0  0  0  0  0  0  0  0  0
  -13.0218    5.7827  -42.9981 C   0  0  2  0  0  0  0  0  0  0  0  0
  -14.3718    6.3850  -43.2628 C   0  0  0  0  0  0  0  0  0  0  0  0
  -14.5600    7.0377  -44.2897 O   0  0  0  0  0  0  0  0  0  0  0  0
  -12.8328    4.6045  -43.8866 C   0  0  0  0  0  0  0  0  0  0  0  0
  -15.4374    6.1929  -42.3270 N   0  0  0  0  0  0  0  0  0  0  0  0
  -16.7677    6.4882  -42.7392 C   0  0  2  0  0  0  0  0  0  0  0  0
  -16.9406    7.0535  -44.0765 C   0  0  0  0  0  0  0  0  0  0  0  0
  -16.2305    8.0870  -44.3458 O   0  0  0  0  0  0  0  0  0  0  0  0
  -17.3923    7.3615  -41.6408 C   0  0  0  0  0  0  0  0  0  0  0  0
  -16.4568    7.5801  -40.5402 C   0  0  0  0  0  0  0  0  0  0  0  0
  -16.6607    8.2809  -39.5067 O   0  0  0  0  0  0  0  0  0  0  0  0
  -15.2060    6.9481  -40.6433 O   0  0  0  0  0  0  0  0  0  0  0  0
  -20.4443    6.7584  -44.6920 O   0  0  0  0  0  0  0  0  0  0  0  0
  -19.2692    7.4004  -45.4504 P   0  0  1  0  0  5  0  0  0  0  0  0
  -19.1435    8.9766  -44.8290 O   0  0  0  0  0  0  0  0  0  0  0  0
  -17.8313    6.5234  -45.0461 N   0  0  0  0  0  0  0  0  0  0  0  0
  -19.6760    7.3982  -47.0579 O   0  0  0  0  0  0  0  0  0  0  0  0
  -19.4699    8.6026  -47.7234 C   0  0  0  0  0  0  0  0  0  0  0  0
  -19.8005    8.5069  -49.1744 C   0  0  2  0  0  0  0  0  0  0  0  0
  -18.8528    7.6493  -49.9831 C   0  0  1  0  0  0  0  0  0  0  0  0
  -19.2145    6.2998  -49.9075 O   0  0  0  0  0  0  0  0  0  0  0  0
  -19.1982    8.1261  -51.3831 C   0  0  1  0  0  0  0  0  0  0  0  0
  -20.3019    7.3678  -51.8216 O   0  0  0  0  0  0  0  0  0  0  0  0
  -19.6833    9.5299  -51.1399 C   0  0  1  0  0  0  0  0  0  0  0  0
  -19.6961    9.7570  -49.7660 O   0  0  0  0  0  0  0  0  0  0  0  0
  -18.8762   10.5303  -51.7738 N   0  0  0  0  0  0  0  0  0  0  0  0
  -19.2637   11.5716  -52.5238 C   0  0  0  0  0  0  0  0  0  0  0  0
  -18.1361   12.2858  -52.9162 C   0  0  0  0  0  0  0  0  0  0  0  0
  -17.0798   11.6329  -52.3759 N   0  0  0  0  0  0  0  0  0  0  0  0
  -17.5420   10.5901  -51.6993 C   0  0  0  0  0  0  0  0  0  0  0  0
  -20.4440   12.0185  -52.9336 N   0  0  0  0  0  0  0  0  0  0  0  0
  -20.6150   13.1086  -53.6956 C   0  0  0  0  0  0  0  0  0  0  0  0
  -19.5157   13.7951  -54.0704 N   0  0  0  0  0  0  0  0  0  0  0  0
  -18.2830   13.4070  -53.6969 C   0  0  0  0  0  0  0  0  0  0  0  0
  -17.1654   14.1615  -54.1088 N   0  0  0  0  0  0  0  0  0  0  0  0
  -18.8119    9.8618  -30.7809 H   0  0  0  0  0  0  0  0  0  0  0  0
  1  2  1  0
  4  1  1  0
  2  3  2  0
  4  5  1  6
  9  4  1  0
  5  6  1  0
  6  7  1  0
  7  8  1  0
  9 10  2  0
 11  9  1  0
 12 11  1  0
 13 12  1  0
 12 15  1  1
 13 14  2  0
 22 13  1  0
 15 16  1  0
 16 17  1  0
 17 18  1  0
 18 19  1  0
 19 20  1  0
 19 21  2  0
 23 22  1  1
 24 23  1  0
 23 26  1  0
 24 25  2  0
 29 24  1  0
 26 27  1  0
 26 28  1  1
 30 29  1  0
 31 30  1  0
 31 32  2  0
 33 31  1  0
 34 33  1  0
 35 34  1  0
 34 37  1  6
 35 36  2  0
 41 35  1  0
 37 38  1  0
 38 39  2  0
 38 40  1  0
 42 41  1  0
 43 42  1  0
 42 45  1  6
 43 44  2  0
 46 43  1  0
 47 46  1  0
 48 47  1  0
 47 50  1  1
 48 49  2  0
 57 48  1  0
 50 51  1  0
 51 52  2  0
 51 53  1  0
 55 54  2  0
 55 56  1  1
 55 57  1  0
 55 58  1  0
 58 59  1  0
 60 59  1  1
 60 61  1  0
 60 66  1  0
 61 62  1  6
 61 63  1  0
 63 64  1  1
 63 65  1  0
 65 66  1  0
 65 67  1  6
 67 68  1  0
 67 71  1  0
 68 69  2  0
 68 72  1  0
 69 70  1  0
 69 75  1  0
 70 71  2  0
 72 73  2  0
 73 74  1  0
 74 75  2  0
 75 76  1  0
 21 77  1  0
M  END
$$$$
