
     RDKit          3D

 77 79  0  0  0  0  0  0  0  0999 V2000
   -6.4335   13.8231  -41.5053 N   0  0  0  0  0  0  0  0  0  0  0  0
   -6.9590   14.9177  -42.1855 C   0  0  0  0  0  0  0  0  0  0  0  0
   -6.9980   16.0908  -41.7123 O   0  0  0  0  0  0  0  0  0  0  0  0
   -6.5430   12.4681  -42.1173 C   0  0  1  0  0  0  0  0  0  0  0  0
   -5.6681   12.4496  -43.3291 C   0  0  0  0  0  0  0  0  0  0  0  0
   -5.4851   13.7646  -44.0205 C   0  0  0  0  0  0  0  0  0  0  0  0
   -4.7424   13.6799  -45.6416 S   0  0  0  0  0  0  0  0  0  0  0  0
   -5.7126   12.9959  -46.9565 C   0  0  0  0  0  0  0  0  0  0  0  0
   -6.0935   11.5695  -41.0133 C   0  0  0  0  0  0  0  0  0  0  0  0
   -4.8665   11.1738  -41.0192 O   0  0  0  0  0  0  0  0  0  0  0  0
   -6.8526   11.0922  -39.9430 N   0  0  0  0  0  0  0  0  0  0  0  0
   -6.6335    9.7975  -39.2724 C   0  0  2  0  0  0  0  0  0  0  0  0
   -7.9460    9.0881  -39.1246 C   0  0  0  0  0  0  0  0  0  0  0  0
   -7.9271    7.8762  -38.7539 O   0  0  0  0  0  0  0  0  0  0  0  0
   -6.0783   10.0674  -37.9094 C   0  0  0  0  0  0  0  0  0  0  0  0
   -6.0448    8.8739  -36.9872 C   0  0  0  0  0  0  0  0  0  0  0  0
   -5.3139    9.2660  -35.7236 C   0  0  0  0  0  0  0  0  0  0  0  0
   -6.2274    9.4623  -34.6084 N   0  0  0  0  0  0  0  0  0  0  0  0
   -5.8930   10.3661  -33.5714 C   0  0  0  0  0  0  0  0  0  0  0  0
   -4.5552   10.3385  -33.0907 N   0  0  0  0  0  0  0  0  0  0  0  0
   -6.7221   11.1945  -33.0547 N   0  0  0  0  0  0  0  0  0  0  0  0
   -9.1902    9.7085  -39.3808 N   0  0  0  0  0  0  0  0  0  0  0  0
  -10.4825    9.0556  -39.1630 C   0  0  2  0  0  0  0  0  0  0  0  0
  -10.7739    8.1006  -40.2242 C   0  0  0  0  0  0  0  0  0  0  0  0
  -11.7133    8.2222  -41.0607 O   0  0  0  0  0  0  0  0  0  0  0  0
  -11.5528   10.0500  -38.8685 C   0  0  2  0  0  0  0  0  0  0  0  0
  -12.7930    9.4949  -38.6053 O   0  0  0  0  0  0  0  0  0  0  0  0
  -11.7257   11.0456  -40.0076 C   0  0  0  0  0  0  0  0  0  0  0  0
   -9.9759    6.9210  -40.3932 N   0  0  0  0  0  0  0  0  0  0  0  0
  -10.2610    5.9589  -41.4102 C   0  0  0  0  0  0  0  0  0  0  0  0
  -11.2970    4.9775  -41.1338 C   0  0  0  0  0  0  0  0  0  0  0  0
  -11.0340    3.9026  -40.5536 O   0  0  0  0  0  0  0  0  0  0  0  0
  -12.6319    5.2357  -41.5186 N   0  0  0  0  0  0  0  0  0  0  0  0
  -13.7598    4.3860  -41.3002 C   0  0  2  0  0  0  0  0  0  0  0  0
  -14.2277    3.8184  -42.5678 C   0  0  0  0  0  0  0  0  0  0  0  0
  -13.5452    4.0257  -43.6100 O   0  0  0  0  0  0  0  0  0  0  0  0
  -14.8840    5.1564  -40.6023 C   0  0  0  0  0  0  0  0  0  0  0  0
  -14.5181    5.3722  -39.1762 C   0  0  0  0  0  0  0  0  0  0  0  0
  -15.3050    5.9732  -38.4249 O   0  0  0  0  0  0  0  0  0  0  0  0
  -13.2866    4.9059  -38.6551 N   0  0  0  0  0  0  0  0  0  0  0  0
  -15.4137    3.0581  -42.6380 N   0  0  0  0  0  0  0  0  0  0  0  0
  -15.2490    1.6840  -43.1281 C   0  0  2  0  0  0  0  0  0  0  0  0
  -16.3151    0.8731  -42.4488 C   0  0  0  0  0  0  0  0  0  0  0  0
  -16.1247    0.4424  -41.3112 O   0  0  0  0  0  0  0  0  0  0  0  0
  -13.9151    1.1344  -42.7648 C   0  0  0  0  0  0  0  0  0  0  0  0
  -17.5511    0.6098  -43.1203 N   0  0  0  0  0  0  0  0  0  0  0  0
  -18.5274   -0.1901  -42.4616 C   0  0  2  0  0  0  0  0  0  0  0  0
  -18.5448   -0.1506  -41.0001 C   0  0  0  0  0  0  0  0  0  0  0  0
  -17.9597   -1.1242  -40.4047 O   0  0  0  0  0  0  0  0  0  0  0  0
  -18.3841   -1.6158  -43.0147 C   0  0  0  0  0  0  0  0  0  0  0  0
  -18.4236   -1.6252  -44.4752 C   0  0  0  0  0  0  0  0  0  0  0  0
  -18.3647   -2.6436  -45.2234 O   0  0  0  0  0  0  0  0  0  0  0  0
  -18.5373   -0.3762  -45.1090 O   0  0  0  0  0  0  0  0  0  0  0  0
  -20.5189    1.7952  -38.1655 O   0  0  0  0  0  0  0  0  0  0  0  0
  -19.9140    0.4996  -38.7345 P   0  0  1  0  0  5  0  0  0  0  0  0
  -21.2390   -0.5239  -39.0226 O   0  0  0  0  0  0  0  0  0  0  0  0
  -19.1631    0.8820  -40.2478 N   0  0  0  0  0  0  0  0  0  0  0  0
  -18.9014   -0.1093  -37.5711 O   0  0  0  0  0  0  0  0  0  0  0  0
  -19.1260   -1.4384  -37.2261 C   0  0  0  0  0  0  0  0  0  0  0  0
  -18.9637   -1.6745  -35.7626 C   0  0  2  0  0  0  0  0  0  0  0  0
  -19.5107   -2.9960  -35.2712 C   0  0  1  0  0  0  0  0  0  0  0  0
  -18.5725   -4.0193  -35.4453 O   0  0  0  0  0  0  0  0  0  0  0  0
  -19.5877   -2.7099  -33.7816 C   0  0  1  0  0  0  0  0  0  0  0  0
  -18.3217   -2.9998  -33.2351 O   0  0  0  0  0  0  0  0  0  0  0  0
  -19.7637   -1.2156  -33.7445 C   0  0  1  0  0  0  0  0  0  0  0  0
  -19.6911   -0.7336  -35.0490 O   0  0  0  0  0  0  0  0  0  0  0  0
  -21.0048   -0.8017  -33.1592 N   0  0  0  0  0  0  0  0  0  0  0  0
  -21.2996   -0.6035  -31.8667 C   0  0  0  0  0  0  0  0  0  0  0  0
  -22.6243   -0.1902  -31.7672 C   0  0  0  0  0  0  0  0  0  0  0  0
  -23.0951   -0.1534  -33.0364 N   0  0  0  0  0  0  0  0  0  0  0  0
  -22.1150   -0.5211  -33.8505 C   0  0  0  0  0  0  0  0  0  0  0  0
  -20.6088   -0.7197  -30.7397 N   0  0  0  0  0  0  0  0  0  0  0  0
  -21.1052   -0.4637  -29.5206 C   0  0  0  0  0  0  0  0  0  0  0  0
  -22.3906   -0.0627  -29.4342 N   0  0  0  0  0  0  0  0  0  0  0  0
  -23.1580    0.0792  -30.5300 C   0  0  0  0  0  0  0  0  0  0  0  0
  -24.4939    0.5072  -30.3886 N   0  0  0  0  0  0  0  0  0  0  0  0
   -7.7355   10.9645  -33.0488 H   0  0  0  0  0  0  0  0  0  0  0  0
  1  2  1  0
  4  1  1  0
  2  3  2  0
  4  5  1  6
  9  4  1  0
  5  6  1  0
  6  7  1  0
  7  8  1  0
  9 10  2  0
 11  9  1  0
 12 11  1  0
 13 12  1  0
 12 15  1  1
 13 14  2  0
 22 13  1  0
 15 16  1  0
 16 17  1  0
 17 18  1  0
 18 19  1  0
 19 20  1  0
 19 21  2  0
 23 22  1  6
 24 23  1  0
 23 26  1  0
 24 25  2  0
 29 24  1  0
 26 27  1  0
 26 28  1  6
 30 29  1  0
 31 30  1  0
 31 32  2  0
 33 31  1  0
 34 33  1  0
 35 34  1  0
 34 37  1  6
 35 36  2  0
 41 35  1  0
 37 38  1  0
 38 39  2  0
 38 40  1  0
 42 41  1  0
 43 42  1  0
 42 45  1  1
 43 44  2  0
 46 43  1  0
 47 46  1  0
 48 47  1  0
 47 50  1  1
 48 49  2  0
 57 48  1  0
 50 51  1  0
 51 52  2  0
 51 53  1  0
 55 54  2  0
 55 56  1  6
 55 57  1  0
 55 58  1  0
 58 59  1  0
 60 59  1  6
 60 61  1  0
 60 66  1  0
 61 62  1  1
 61 63  1  0
 63 64  1  1
 63 65  1  0
 65 66  1  0
 65 67  1  6
 67 68  1  0
 67 71  1  0
 68 69  2  0
 68 72  1  0
 69 70  1  0
 69 75  1  0
 70 71  2  0
 72 73  2  0
 73 74  1  0
 74 75  2  0
 75 76  1  0
 21 77  1  0
M  END
$$$$
