
     RDKit          3D

 77 79  0  0  0  0  0  0  0  0999 V2000
  -19.0597    3.0893   -8.7788 N   0  0  0  0  0  0  0  0  0  0  0  0
  -19.3962    2.1836   -9.7806 C   0  0  0  0  0  0  0  0  0  0  0  0
  -20.2920    2.3927  -10.6497 O   0  0  0  0  0  0  0  0  0  0  0  0
  -18.0840    2.6797   -7.7288 C   0  0  1  0  0  0  0  0  0  0  0  0
  -18.6281    3.1264   -6.4101 C   0  0  0  0  0  0  0  0  0  0  0  0
  -18.5007    4.5882   -6.1144 C   0  0  0  0  0  0  0  0  0  0  0  0
  -19.1281    5.6818   -7.3783 S   0  0  0  0  0  0  0  0  0  0  0  0
  -20.6546    5.2427   -8.1627 C   0  0  0  0  0  0  0  0  0  0  0  0
  -18.0143    1.1986   -7.9020 C   0  0  0  0  0  0  0  0  0  0  0  0
  -19.0830    0.5138   -7.6759 O   0  0  0  0  0  0  0  0  0  0  0  0
  -16.9095    0.4391   -8.2920 N   0  0  0  0  0  0  0  0  0  0  0  0
  -16.8354   -1.0315   -8.2168 C   0  0  2  0  0  0  0  0  0  0  0  0
  -17.7369   -1.6265   -9.2565 C   0  0  0  0  0  0  0  0  0  0  0  0
  -17.6543   -2.8729   -9.4707 O   0  0  0  0  0  0  0  0  0  0  0  0
  -17.3186   -1.4534   -6.8651 C   0  0  0  0  0  0  0  0  0  0  0  0
  -17.3503   -2.9442   -6.6364 C   0  0  0  0  0  0  0  0  0  0  0  0
  -16.0706   -3.3489   -5.9413 C   0  0  0  0  0  0  0  0  0  0  0  0
  -16.0335   -4.7764   -5.6629 N   0  0  0  0  0  0  0  0  0  0  0  0
  -16.0032   -5.2349   -4.3239 C   0  0  0  0  0  0  0  0  0  0  0  0
  -15.9638   -4.2496   -3.2998 N   0  0  0  0  0  0  0  0  0  0  0  0
  -16.0108   -6.4729   -3.9955 N   0  0  0  0  0  0  0  0  0  0  0  0
  -18.6642   -0.8619  -10.0010 N   0  0  0  0  0  0  0  0  0  0  0  0
  -19.2948   -1.3297  -11.2367 C   0  0  2  0  0  0  0  0  0  0  0  0
  -18.3388   -1.3581  -12.3361 C   0  0  0  0  0  0  0  0  0  0  0  0
  -18.4540   -2.0775  -13.3686 O   0  0  0  0  0  0  0  0  0  0  0  0
  -20.5729   -0.6107  -11.5025 C   0  0  2  0  0  0  0  0  0  0  0  0
  -20.4207    0.7253  -11.8304 O   0  0  0  0  0  0  0  0  0  0  0  0
  -21.5208   -0.6884  -10.3133 C   0  0  0  0  0  0  0  0  0  0  0  0
  -17.1658   -0.5333  -12.3136 N   0  0  0  0  0  0  0  0  0  0  0  0
  -16.5357   -0.0881  -13.5161 C   0  0  0  0  0  0  0  0  0  0  0  0
  -15.9548   -1.0997  -14.3833 C   0  0  0  0  0  0  0  0  0  0  0  0
  -15.3691   -0.7878  -15.4420 O   0  0  0  0  0  0  0  0  0  0  0  0
  -16.0426   -2.4649  -14.0295 N   0  0  0  0  0  0  0  0  0  0  0  0
  -15.5166   -3.5704  -14.7665 C   0  0  2  0  0  0  0  0  0  0  0  0
  -16.4456   -4.7032  -14.7252 C   0  0  0  0  0  0  0  0  0  0  0  0
  -15.9705   -5.8704  -14.6420 O   0  0  0  0  0  0  0  0  0  0  0  0
  -14.1439   -3.9737  -14.2210 C   0  0  0  0  0  0  0  0  0  0  0  0
  -13.0822   -3.3719  -15.0724 C   0  0  0  0  0  0  0  0  0  0  0  0
  -13.3777   -2.9128  -16.1890 O   0  0  0  0  0  0  0  0  0  0  0  0
  -11.7364   -3.3117  -14.6356 N   0  0  0  0  0  0  0  0  0  0  0  0
  -17.8417   -4.5095  -14.7793 N   0  0  0  0  0  0  0  0  0  0  0  0
  -18.3803   -4.1994  -16.1094 C   0  0  2  0  0  0  0  0  0  0  0  0
  -18.6785   -5.5233  -16.7527 C   0  0  0  0  0  0  0  0  0  0  0  0
  -19.3278   -5.5634  -17.7980 O   0  0  0  0  0  0  0  0  0  0  0  0
  -17.3862   -3.4684  -16.9405 C   0  0  0  0  0  0  0  0  0  0  0  0
  -18.2015   -6.7331  -16.1552 N   0  0  0  0  0  0  0  0  0  0  0  0
  -18.6103   -7.9767  -16.7149 C   0  0  2  0  0  0  0  0  0  0  0  0
  -18.3507   -9.1797  -15.9255 C   0  0  0  0  0  0  0  0  0  0  0  0
  -17.3776   -9.9140  -16.3237 O   0  0  0  0  0  0  0  0  0  0  0  0
  -18.0074   -8.0515  -18.1256 C   0  0  0  0  0  0  0  0  0  0  0  0
  -19.0500   -8.0518  -19.1492 C   0  0  0  0  0  0  0  0  0  0  0  0
  -20.2668   -8.3564  -18.9844 O   0  0  0  0  0  0  0  0  0  0  0  0
  -18.6584   -7.6766  -20.4455 O   0  0  0  0  0  0  0  0  0  0  0  0
  -18.7749   -8.7501  -12.2819 O   0  0  0  0  0  0  0  0  0  0  0  0
  -18.2970   -9.8224  -13.2770 P   0  0  1  0  0  5  0  0  0  0  0  0
  -18.8255  -11.3012  -12.6289 O   0  0  0  0  0  0  0  0  0  0  0  0
  -19.1075   -9.5504  -14.7834 N   0  0  0  0  0  0  0  0  0  0  0  0
  -16.6426   -9.7248  -13.3310 O   0  0  0  0  0  0  0  0  0  0  0  0
  -16.1181   -8.4474  -13.1610 C   0  0  0  0  0  0  0  0  0  0  0  0
  -14.6289   -8.4361  -13.2396 C   0  0  2  0  0  0  0  0  0  0  0  0
  -13.9314   -9.1782  -12.1216 C   0  0  1  0  0  0  0  0  0  0  0  0
  -13.8429  -10.5445  -12.4098 O   0  0  0  0  0  0  0  0  0  0  0  0
  -12.5328   -8.6020  -12.2574 C   0  0  1  0  0  0  0  0  0  0  0  0
  -11.8571   -9.3708  -13.2258 O   0  0  0  0  0  0  0  0  0  0  0  0
  -12.7944   -7.2474  -12.8588 C   0  0  1  0  0  0  0  0  0  0  0  0
  -14.1592   -7.1373  -13.1130 O   0  0  0  0  0  0  0  0  0  0  0  0
  -12.3840   -6.1612  -12.0186 N   0  0  0  0  0  0  0  0  0  0  0  0
  -11.1430   -5.7486  -11.7248 C   0  0  0  0  0  0  0  0  0  0  0  0
  -11.2252   -4.6458  -10.8806 C   0  0  0  0  0  0  0  0  0  0  0  0
  -12.5477   -4.4263  -10.6889 N   0  0  0  0  0  0  0  0  0  0  0  0
  -13.2209   -5.3396  -11.3753 C   0  0  0  0  0  0  0  0  0  0  0  0
   -9.9315   -6.1680  -12.0669 N   0  0  0  0  0  0  0  0  0  0  0  0
   -8.7906   -5.5974  -11.6533 C   0  0  0  0  0  0  0  0  0  0  0  0
   -8.8805   -4.5279  -10.8356 N   0  0  0  0  0  0  0  0  0  0  0  0
  -10.0715   -4.0417  -10.4422 C   0  0  0  0  0  0  0  0  0  0  0  0
  -10.1135   -2.9177   -9.5920 N   0  0  0  0  0  0  0  0  0  0  0  0
  -15.9521   -7.1976   -4.7380 H   0  0  0  0  0  0  0  0  0  0  0  0
  1  2  1  0
  4  1  1  0
  2  3  2  0
  4  5  1  1
  9  4  1  0
  5  6  1  0
  6  7  1  0
  7  8  1  0
  9 10  2  0
 11  9  1  0
 12 11  1  0
 13 12  1  0
 12 15  1  1
 13 14  2  0
 22 13  1  0
 15 16  1  0
 16 17  1  0
 17 18  1  0
 18 19  1  0
 19 20  1  0
 19 21  2  0
 23 22  1  1
 24 23  1  0
 23 26  1  0
 24 25  2  0
 29 24  1  0
 26 27  1  0
 26 28  1  1
 30 29  1  0
 31 30  1  0
 31 32  2  0
 33 31  1  0
 34 33  1  0
 35 34  1  0
 34 37  1  1
 35 36  2  0
 41 35  1  0
 37 38  1  0
 38 39  2  0
 38 40  1  0
 42 41  1  0
 43 42  1  0
 42 45  1  6
 43 44  2  0
 46 43  1  0
 47 46  1  0
 48 47  1  0
 47 50  1  6
 48 49  2  0
 57 48  1  0
 50 51  1  0
 51 52  2  0
 51 53  1  0
 55 54  2  0
 55 56  1  1
 55 57  1  0
 55 58  1  0
 58 59  1  0
 60 59  1  1
 60 61  1  0
 60 66  1  0
 61 62  1  6
 61 63  1  0
 63 64  1  6
 63 65  1  0
 65 66  1  0
 65 67  1  1
 67 68  1  0
 67 71  1  0
 68 69  2  0
 68 72  1  0
 69 70  1  0
 69 75  1  0
 70 71  2  0
 72 73  2  0
 73 74  1  0
 74 75  2  0
 75 76  1  0
 21 77  1  0
M  END
$$$$
