
     RDKit          3D

 77 79  0  0  0  0  0  0  0  0999 V2000
  -18.0839   -0.7200  -15.1757 N   0  0  0  0  0  0  0  0  0  0  0  0
  -19.0951   -1.4886  -15.7446 C   0  0  0  0  0  0  0  0  0  0  0  0
  -19.3357   -1.5318  -16.9863 O   0  0  0  0  0  0  0  0  0  0  0  0
  -17.8504   -0.8020  -13.7057 C   0  0  1  0  0  0  0  0  0  0  0  0
  -19.0911   -0.3201  -13.0254 C   0  0  0  0  0  0  0  0  0  0  0  0
  -19.3863    1.1405  -13.1674 C   0  0  0  0  0  0  0  0  0  0  0  0
  -18.3570    2.2272  -12.1946 S   0  0  0  0  0  0  0  0  0  0  0  0
  -19.1412    3.5880  -11.3750 C   0  0  0  0  0  0  0  0  0  0  0  0
  -17.5514   -2.2499  -13.4987 C   0  0  0  0  0  0  0  0  0  0  0  0
  -16.7024   -2.5654  -12.5813 O   0  0  0  0  0  0  0  0  0  0  0  0
  -18.0916   -3.3368  -14.1888 N   0  0  0  0  0  0  0  0  0  0  0  0
  -17.7374   -4.7463  -13.9407 C   0  0  2  0  0  0  0  0  0  0  0  0
  -16.3541   -5.0074  -14.4565 C   0  0  0  0  0  0  0  0  0  0  0  0
  -16.1684   -6.0472  -15.1569 O   0  0  0  0  0  0  0  0  0  0  0  0
  -18.7007   -5.6080  -14.6945 C   0  0  0  0  0  0  0  0  0  0  0  0
  -19.9215   -4.8925  -15.2174 C   0  0  0  0  0  0  0  0  0  0  0  0
  -20.6026   -5.7852  -16.2291 C   0  0  0  0  0  0  0  0  0  0  0  0
  -19.8605   -5.8524  -17.4787 N   0  0  0  0  0  0  0  0  0  0  0  0
  -20.4144   -6.5247  -18.5946 C   0  0  0  0  0  0  0  0  0  0  0  0
  -20.6543   -7.9196  -18.4603 N   0  0  0  0  0  0  0  0  0  0  0  0
  -20.7066   -5.9474  -19.7000 N   0  0  0  0  0  0  0  0  0  0  0  0
  -15.2600   -4.1512  -14.1951 N   0  0  0  0  0  0  0  0  0  0  0  0
  -14.0051   -4.6002  -13.5891 C   0  0  2  0  0  0  0  0  0  0  0  0
  -13.7170   -3.8595  -12.3678 C   0  0  0  0  0  0  0  0  0  0  0  0
  -14.0510   -2.6583  -12.1616 O   0  0  0  0  0  0  0  0  0  0  0  0
  -12.9046   -4.6564  -14.5926 C   0  0  2  0  0  0  0  0  0  0  0  0
  -12.0177   -5.7033  -14.4114 O   0  0  0  0  0  0  0  0  0  0  0  0
  -12.0964   -3.3661  -14.6153 C   0  0  0  0  0  0  0  0  0  0  0  0
  -13.0140   -4.4765  -11.2806 N   0  0  0  0  0  0  0  0  0  0  0  0
  -13.7019   -5.0313  -10.1580 C   0  0  0  0  0  0  0  0  0  0  0  0
  -15.0763   -5.4600  -10.3581 C   0  0  0  0  0  0  0  0  0  0  0  0
  -15.3425   -6.5410  -10.9251 O   0  0  0  0  0  0  0  0  0  0  0  0
  -16.1400   -4.6497   -9.9014 N   0  0  0  0  0  0  0  0  0  0  0  0
  -17.0845   -4.9806   -8.8814 C   0  0  2  0  0  0  0  0  0  0  0  0
  -18.4534   -4.7854   -9.3669 C   0  0  0  0  0  0  0  0  0  0  0  0
  -19.2664   -4.1487   -8.6398 O   0  0  0  0  0  0  0  0  0  0  0  0
  -16.8299   -4.1452   -7.6238 C   0  0  0  0  0  0  0  0  0  0  0  0
  -16.6517   -2.7194   -8.0105 C   0  0  0  0  0  0  0  0  0  0  0  0
  -16.6476   -2.4056   -9.2132 O   0  0  0  0  0  0  0  0  0  0  0  0
  -16.4853   -1.7083   -7.0329 N   0  0  0  0  0  0  0  0  0  0  0  0
  -18.8688   -5.2942  -10.6153 N   0  0  0  0  0  0  0  0  0  0  0  0
  -20.2328   -4.9300  -11.0179 C   0  0  2  0  0  0  0  0  0  0  0  0
  -20.4654   -5.6008  -12.3412 C   0  0  0  0  0  0  0  0  0  0  0  0
  -21.4199   -5.2604  -13.0405 O   0  0  0  0  0  0  0  0  0  0  0  0
  -20.3741   -3.4587  -11.1875 C   0  0  0  0  0  0  0  0  0  0  0  0
  -19.5744   -6.6268  -12.7901 N   0  0  0  0  0  0  0  0  0  0  0  0
  -19.2392   -6.6812  -14.1727 C   0  0  2  0  0  0  0  0  0  0  0  0
  -18.0534   -7.4534  -14.5406 C   0  0  0  0  0  0  0  0  0  0  0  0
  -17.8049   -7.5376  -15.7960 O   0  0  0  0  0  0  0  0  0  0  0  0
  -19.1824   -5.2312  -14.6761 C   0  0  0  0  0  0  0  0  0  0  0  0
  -18.9119   -5.1775  -16.1108 C   0  0  0  0  0  0  0  0  0  0  0  0
  -17.7988   -4.9288  -16.6584 O   0  0  0  0  0  0  0  0  0  0  0  0
  -19.9993   -5.4265  -16.9654 O   0  0  0  0  0  0  0  0  0  0  0  0
  -17.0236  -10.7180  -13.3407 O   0  0  0  0  0  0  0  0  0  0  0  0
  -16.3547   -9.5287  -14.0524 P   0  0  1  0  0  5  0  0  0  0  0  0
  -16.5953   -9.8069  -15.7109 O   0  0  0  0  0  0  0  0  0  0  0  0
  -17.2043   -8.0893  -13.5976 N   0  0  0  0  0  0  0  0  0  0  0  0
  -14.7480   -9.5659  -13.6440 O   0  0  0  0  0  0  0  0  0  0  0  0
  -13.9869   -8.5095  -14.1344 C   0  0  0  0  0  0  0  0  0  0  0  0
  -12.5294   -8.7040  -13.8860 C   0  0  2  0  0  0  0  0  0  0  0  0
  -12.1957   -9.8256  -12.9279 C   0  0  1  0  0  0  0  0  0  0  0  0
  -12.1505  -11.0543  -13.5957 O   0  0  0  0  0  0  0  0  0  0  0  0
  -10.7651   -9.4546  -12.5786 C   0  0  1  0  0  0  0  0  0  0  0  0
   -9.9347  -10.0167  -13.5684 O   0  0  0  0  0  0  0  0  0  0  0  0
  -10.7566   -7.9627  -12.7764 C   0  0  1  0  0  0  0  0  0  0  0  0
  -12.0012   -7.5793  -13.2697 O   0  0  0  0  0  0  0  0  0  0  0  0
  -10.4809   -7.2295  -11.5762 N   0  0  0  0  0  0  0  0  0  0  0  0
   -9.6803   -6.1682  -11.4050 C   0  0  0  0  0  0  0  0  0  0  0  0
   -9.7327   -5.7776  -10.0707 C   0  0  0  0  0  0  0  0  0  0  0  0
  -10.5847   -6.6401   -9.4675 N   0  0  0  0  0  0  0  0  0  0  0  0
  -11.0195   -7.4970  -10.3814 C   0  0  0  0  0  0  0  0  0  0  0  0
   -8.8997   -5.4671  -12.2173 N   0  0  0  0  0  0  0  0  0  0  0  0
   -8.1652   -4.4126  -11.8341 C   0  0  0  0  0  0  0  0  0  0  0  0
   -8.2232   -4.0408  -10.5384 N   0  0  0  0  0  0  0  0  0  0  0  0
   -8.9902   -4.7000   -9.6514 C   0  0  0  0  0  0  0  0  0  0  0  0
   -9.0223   -4.2691   -8.3093 N   0  0  0  0  0  0  0  0  0  0  0  0
  -20.0180   -5.3026  -20.1358 H   0  0  0  0  0  0  0  0  0  0  0  0
  1  2  1  0
  4  1  1  0
  2  3  2  0
  4  5  1  1
  9  4  1  0
  5  6  1  0
  6  7  1  0
  7  8  1  0
  9 10  2  0
 11  9  1  0
 12 11  1  0
 13 12  1  0
 12 15  1  6
 13 14  2  0
 22 13  1  0
 15 16  1  0
 16 17  1  0
 17 18  1  0
 18 19  1  0
 19 20  1  0
 19 21  2  0
 23 22  1  6
 24 23  1  0
 23 26  1  0
 24 25  2  0
 29 24  1  0
 26 27  1  0
 26 28  1  1
 30 29  1  0
 31 30  1  0
 31 32  2  0
 33 31  1  0
 34 33  1  0
 35 34  1  0
 34 37  1  1
 35 36  2  0
 41 35  1  0
 37 38  1  0
 38 39  2  0
 38 40  1  0
 42 41  1  0
 43 42  1  0
 42 45  1  6
 43 44  2  0
 46 43  1  0
 47 46  1  0
 48 47  1  0
 47 50  1  1
 48 49  2  0
 57 48  1  0
 50 51  1  0
 51 52  2  0
 51 53  1  0
 55 54  2  0
 55 56  1  6
 55 57  1  0
 55 58  1  0
 58 59  1  0
 60 59  1  1
 60 61  1  0
 60 66  1  0
 61 62  1  6
 61 63  1  0
 63 64  1  6
 63 65  1  0
 65 66  1  0
 65 67  1  1
 67 68  1  0
 67 71  1  0
 68 69  2  0
 68 72  1  0
 69 70  1  0
 69 75  1  0
 70 71  2  0
 72 73  2  0
 73 74  1  0
 74 75  2  0
 75 76  1  0
 21 77  1  0
M  END
$$$$
