
     RDKit          3D

 77 79  0  0  0  0  0  0  0  0999 V2000
  -15.1322   -8.1224  -12.3618 N   0  0  0  0  0  0  0  0  0  0  0  0
  -14.8470   -7.3001  -11.2758 C   0  0  0  0  0  0  0  0  0  0  0  0
  -15.5760   -6.3313  -10.9130 O   0  0  0  0  0  0  0  0  0  0  0  0
  -14.0073   -8.7590  -13.1047 C   0  0  1  0  0  0  0  0  0  0  0  0
  -14.5714   -9.3480  -14.3574 C   0  0  0  0  0  0  0  0  0  0  0  0
  -13.7081  -10.3564  -15.0491 C   0  0  0  0  0  0  0  0  0  0  0  0
  -13.4527  -11.8832  -14.1602 S   0  0  0  0  0  0  0  0  0  0  0  0
  -11.8459  -12.6247  -14.2431 C   0  0  0  0  0  0  0  0  0  0  0  0
  -13.0683   -7.6191  -13.3228 C   0  0  0  0  0  0  0  0  0  0  0  0
  -11.9183   -7.8764  -13.8457 O   0  0  0  0  0  0  0  0  0  0  0  0
  -13.2838   -6.2715  -13.0278 N   0  0  0  0  0  0  0  0  0  0  0  0
  -12.3273   -5.1874  -13.3173 C   0  0  2  0  0  0  0  0  0  0  0  0
  -12.6527   -4.5829  -14.6501 C   0  0  0  0  0  0  0  0  0  0  0  0
  -12.1503   -3.4529  -14.9278 O   0  0  0  0  0  0  0  0  0  0  0  0
  -10.9558   -5.7818  -13.3825 C   0  0  0  0  0  0  0  0  0  0  0  0
  -10.4755   -6.4182  -12.1019 C   0  0  0  0  0  0  0  0  0  0  0  0
   -9.0638   -5.9490  -11.8345 C   0  0  0  0  0  0  0  0  0  0  0  0
   -8.1012   -6.6025  -12.7080 N   0  0  0  0  0  0  0  0  0  0  0  0
   -7.9045   -8.0017  -12.6218 C   0  0  0  0  0  0  0  0  0  0  0  0
   -6.5672   -8.4631  -12.4800 N   0  0  0  0  0  0  0  0  0  0  0  0
   -8.8563   -8.8579  -12.6630 N   0  0  0  0  0  0  0  0  0  0  0  0
  -13.4894   -5.2141  -15.5989 N   0  0  0  0  0  0  0  0  0  0  0  0
  -13.8275   -4.6303  -16.8982 C   0  0  2  0  0  0  0  0  0  0  0  0
  -14.7479   -3.5107  -16.7474 C   0  0  0  0  0  0  0  0  0  0  0  0
  -14.8718   -2.5669  -17.5785 O   0  0  0  0  0  0  0  0  0  0  0  0
  -14.2304   -5.6781  -17.8784 C   0  0  2  0  0  0  0  0  0  0  0  0
  -13.1723   -6.3498  -18.4656 O   0  0  0  0  0  0  0  0  0  0  0  0
  -15.0891   -5.1031  -18.9968 C   0  0  0  0  0  0  0  0  0  0  0  0
  -15.6070   -3.4124  -15.6033 N   0  0  0  0  0  0  0  0  0  0  0  0
  -16.1956   -4.5674  -15.0026 C   0  0  0  0  0  0  0  0  0  0  0  0
  -16.5243   -4.4943  -13.5886 C   0  0  0  0  0  0  0  0  0  0  0  0
  -15.8549   -5.1131  -12.7342 O   0  0  0  0  0  0  0  0  0  0  0  0
  -17.6161   -3.7066  -13.1595 N   0  0  0  0  0  0  0  0  0  0  0  0
  -18.0420   -3.5054  -11.8104 C   0  0  2  0  0  0  0  0  0  0  0  0
  -19.5019   -3.3955  -11.7442 C   0  0  0  0  0  0  0  0  0  0  0  0
  -20.0235   -2.9051  -10.7038 O   0  0  0  0  0  0  0  0  0  0  0  0
  -17.3762   -2.2601  -11.2184 C   0  0  0  0  0  0  0  0  0  0  0  0
  -16.3462   -2.6785  -10.2294 C   0  0  0  0  0  0  0  0  0  0  0  0
  -15.5793   -1.8287   -9.7452 O   0  0  0  0  0  0  0  0  0  0  0  0
  -16.2204   -4.0306   -9.8271 N   0  0  0  0  0  0  0  0  0  0  0  0
  -20.3193   -3.8266  -12.8099 N   0  0  0  0  0  0  0  0  0  0  0  0
  -21.7602   -3.6228  -12.6166 C   0  0  2  0  0  0  0  0  0  0  0  0
  -21.9713   -3.5510  -11.1315 C   0  0  0  0  0  0  0  0  0  0  0  0
  -22.3226   -4.5566  -10.5140 O   0  0  0  0  0  0  0  0  0  0  0  0
  -22.5475   -4.7600  -13.1648 C   0  0  0  0  0  0  0  0  0  0  0  0
  -21.7561   -2.3186  -10.4366 N   0  0  0  0  0  0  0  0  0  0  0  0
  -21.7801   -2.3257   -9.0132 C   0  0  2  0  0  0  0  0  0  0  0  0
  -21.7719   -1.0276   -8.3404 C   0  0  0  0  0  0  0  0  0  0  0  0
  -21.6090   -1.0549   -7.0686 O   0  0  0  0  0  0  0  0  0  0  0  0
  -20.6356   -3.2402   -8.5516 C   0  0  0  0  0  0  0  0  0  0  0  0
  -21.1418   -4.3855   -7.7989 C   0  0  0  0  0  0  0  0  0  0  0  0
  -21.8690   -5.3189   -8.2468 O   0  0  0  0  0  0  0  0  0  0  0  0
  -20.7840   -4.4537   -6.4417 O   0  0  0  0  0  0  0  0  0  0  0  0
  -24.0226    1.7973   -9.3717 O   0  0  0  0  0  0  0  0  0  0  0  0
  -22.9545    1.4283   -8.3270 P   0  0  1  0  0  5  0  0  0  0  0  0
  -23.8148    0.7527   -7.0272 O   0  0  0  0  0  0  0  0  0  0  0  0
  -21.9339    0.2101   -9.0158 N   0  0  0  0  0  0  0  0  0  0  0  0
  -22.1923    2.8378   -7.9004 O   0  0  0  0  0  0  0  0  0  0  0  0
  -20.8223    2.7290   -7.6837 C   0  0  0  0  0  0  0  0  0  0  0  0
  -20.3794    3.5005   -6.4868 C   0  0  2  0  0  0  0  0  0  0  0  0
  -20.8106    2.9133   -5.1614 C   0  0  1  0  0  0  0  0  0  0  0  0
  -19.9149    1.9247   -4.7395 O   0  0  0  0  0  0  0  0  0  0  0  0
  -20.6020    4.1183   -4.2609 C   0  0  1  0  0  0  0  0  0  0  0  0
  -19.2521    4.1085   -3.8570 O   0  0  0  0  0  0  0  0  0  0  0  0
  -20.7802    5.2715   -5.2115 C   0  0  1  0  0  0  0  0  0  0  0  0
  -20.9639    4.7583   -6.4930 O   0  0  0  0  0  0  0  0  0  0  0  0
  -21.8888    6.1174   -4.8808 N   0  0  0  0  0  0  0  0  0  0  0  0
  -21.9164    7.1922   -4.0803 C   0  0  0  0  0  0  0  0  0  0  0  0
  -23.2080    7.7092   -4.0681 C   0  0  0  0  0  0  0  0  0  0  0  0
  -23.9338    6.9067   -4.8823 N   0  0  0  0  0  0  0  0  0  0  0  0
  -23.1297    5.9648   -5.3564 C   0  0  0  0  0  0  0  0  0  0  0  0
  -21.0018    7.8137   -3.3469 N   0  0  0  0  0  0  0  0  0  0  0  0
  -21.2441    8.9019   -2.6017 C   0  0  0  0  0  0  0  0  0  0  0  0
  -22.4994    9.3965   -2.5968 N   0  0  0  0  0  0  0  0  0  0  0  0
  -23.4835    8.8239   -3.3132 C   0  0  0  0  0  0  0  0  0  0  0  0
  -24.7779    9.3818   -3.2806 N   0  0  0  0  0  0  0  0  0  0  0  0
   -9.7837   -8.6085  -12.2660 H   0  0  0  0  0  0  0  0  0  0  0  0
  1  2  1  0
  4  1  1  0
  2  3  2  0
  4  5  1  6
  9  4  1  0
  5  6  1  0
  6  7  1  0
  7  8  1  0
  9 10  2  0
 11  9  1  0
 12 11  1  0
 13 12  1  0
 12 15  1  6
 13 14  2  0
 22 13  1  0
 15 16  1  0
 16 17  1  0
 17 18  1  0
 18 19  1  0
 19 20  1  0
 19 21  2  0
 23 22  1  1
 24 23  1  0
 23 26  1  0
 24 25  2  0
 29 24  1  0
 26 27  1  0
 26 28  1  6
 30 29  1  0
 31 30  1  0
 31 32  2  0
 33 31  1  0
 34 33  1  0
 35 34  1  0
 34 37  1  6
 35 36  2  0
 41 35  1  0
 37 38  1  0
 38 39  2  0
 38 40  1  0
 42 41  1  0
 43 42  1  0
 42 45  1  1
 43 44  2  0
 46 43  1  0
 47 46  1  0
 48 47  1  0
 47 50  1  1
 48 49  2  0
 57 48  1  0
 50 51  1  0
 51 52  2  0
 51 53  1  0
 55 54  2  0
 55 56  1  1
 55 57  1  0
 55 58  1  0
 58 59  1  0
 60 59  1  6
 60 61  1  0
 60 66  1  0
 61 62  1  1
 61 63  1  0
 63 64  1  6
 63 65  1  0
 65 66  1  0
 65 67  1  1
 67 68  1  0
 67 71  1  0
 68 69  2  0
 68 72  1  0
 69 70  1  0
 69 75  1  0
 70 71  2  0
 72 73  2  0
 73 74  1  0
 74 75  2  0
 75 76  1  0
 21 77  1  0
M  END
$$$$
