
     RDKit          3D

 77 79  0  0  0  0  0  0  0  0999 V2000
  -25.7980   -6.1295  -16.1631 N   0  0  0  0  0  0  0  0  0  0  0  0
  -25.9390   -5.2899  -15.0621 C   0  0  0  0  0  0  0  0  0  0  0  0
  -26.4625   -4.1388  -15.1142 O   0  0  0  0  0  0  0  0  0  0  0  0
  -25.1329   -7.4519  -15.9863 C   0  0  1  0  0  0  0  0  0  0  0  0
  -25.5714   -8.3305  -17.1133 C   0  0  0  0  0  0  0  0  0  0  0  0
  -27.0505   -8.4967  -17.2720 C   0  0  0  0  0  0  0  0  0  0  0  0
  -27.5803   -9.1809  -18.8334 S   0  0  0  0  0  0  0  0  0  0  0  0
  -29.3084   -9.1127  -19.2177 C   0  0  0  0  0  0  0  0  0  0  0  0
  -23.6828   -7.0974  -16.0034 C   0  0  0  0  0  0  0  0  0  0  0  0
  -22.8290   -8.0557  -16.1244 O   0  0  0  0  0  0  0  0  0  0  0  0
  -23.1174   -5.8245  -15.9061 N   0  0  0  0  0  0  0  0  0  0  0  0
  -21.7598   -5.5474  -15.4022 C   0  0  2  0  0  0  0  0  0  0  0  0
  -21.5275   -6.3337  -14.1470 C   0  0  0  0  0  0  0  0  0  0  0  0
  -22.0917   -7.4638  -14.0416 O   0  0  0  0  0  0  0  0  0  0  0  0
  -21.6723   -4.0894  -15.0776 C   0  0  0  0  0  0  0  0  0  0  0  0
  -20.2761   -3.5181  -15.0827 C   0  0  0  0  0  0  0  0  0  0  0  0
  -20.3609   -2.0446  -14.7569 C   0  0  0  0  0  0  0  0  0  0  0  0
  -19.2638   -1.2949  -15.3494 N   0  0  0  0  0  0  0  0  0  0  0  0
  -18.6649   -0.2320  -14.6313 C   0  0  0  0  0  0  0  0  0  0  0  0
  -19.5052    0.5267  -13.7713 N   0  0  0  0  0  0  0  0  0  0  0  0
  -17.4239    0.0735  -14.7159 N   0  0  0  0  0  0  0  0  0  0  0  0
  -20.7150   -5.8705  -13.0869 N   0  0  0  0  0  0  0  0  0  0  0  0
  -20.4478   -6.6427  -11.8721 C   0  0  2  0  0  0  0  0  0  0  0  0
  -19.2913   -7.5119  -12.0460 C   0  0  0  0  0  0  0  0  0  0  0  0
  -18.9677   -8.4423  -11.2545 O   0  0  0  0  0  0  0  0  0  0  0  0
  -21.6846   -7.2977  -11.3595 C   0  0  2  0  0  0  0  0  0  0  0  0
  -21.6180   -7.6880  -10.0333 O   0  0  0  0  0  0  0  0  0  0  0  0
  -22.0555   -8.5237  -12.1829 C   0  0  0  0  0  0  0  0  0  0  0  0
  -18.4197   -7.3611  -13.1748 N   0  0  0  0  0  0  0  0  0  0  0  0
  -17.2486   -8.1639  -13.3340 C   0  0  0  0  0  0  0  0  0  0  0  0
  -16.4299   -7.9300  -14.5120 C   0  0  0  0  0  0  0  0  0  0  0  0
  -15.2079   -8.1903  -14.5148 O   0  0  0  0  0  0  0  0  0  0  0  0
  -17.0176   -7.4043  -15.6846 N   0  0  0  0  0  0  0  0  0  0  0  0
  -16.3276   -6.9136  -16.8358 C   0  0  2  0  0  0  0  0  0  0  0  0
  -15.3770   -5.8649  -16.4558 C   0  0  0  0  0  0  0  0  0  0  0  0
  -15.7849   -4.6708  -16.4040 O   0  0  0  0  0  0  0  0  0  0  0  0
  -17.3233   -6.3931  -17.8760 C   0  0  0  0  0  0  0  0  0  0  0  0
  -16.5776   -5.9142  -19.0713 C   0  0  0  0  0  0  0  0  0  0  0  0
  -15.9886   -4.8205  -19.0297 O   0  0  0  0  0  0  0  0  0  0  0  0
  -16.5252   -6.6815  -20.2606 N   0  0  0  0  0  0  0  0  0  0  0  0
  -14.0324   -6.1672  -16.1549 N   0  0  0  0  0  0  0  0  0  0  0  0
  -13.1930   -5.0136  -15.8089 C   0  0  2  0  0  0  0  0  0  0  0  0
  -13.9084   -4.3015  -14.6969 C   0  0  0  0  0  0  0  0  0  0  0  0
  -13.5604   -3.1655  -14.3740 O   0  0  0  0  0  0  0  0  0  0  0  0
  -13.0430   -4.0861  -16.9624 C   0  0  0  0  0  0  0  0  0  0  0  0
  -14.9964   -4.9400  -14.0213 N   0  0  0  0  0  0  0  0  0  0  0  0
  -15.4934   -4.3527  -12.8234 C   0  0  2  0  0  0  0  0  0  0  0  0
  -15.6039   -5.2208  -11.6520 C   0  0  0  0  0  0  0  0  0  0  0  0
  -15.3915   -6.4691  -11.8557 O   0  0  0  0  0  0  0  0  0  0  0  0
  -16.8202   -3.6657  -13.1796 C   0  0  0  0  0  0  0  0  0  0  0  0
  -16.7965   -2.2487  -12.8245 C   0  0  0  0  0  0  0  0  0  0  0  0
  -17.2135   -1.2877  -13.5338 O   0  0  0  0  0  0  0  0  0  0  0  0
  -16.2547   -1.9242  -11.5691 O   0  0  0  0  0  0  0  0  0  0  0  0
  -16.8364   -5.2292   -7.9121 O   0  0  0  0  0  0  0  0  0  0  0  0
  -16.0097   -5.8762   -9.0374 P   0  0  1  0  0  5  0  0  0  0  0  0
  -16.9082   -7.2312   -9.5301 O   0  0  0  0  0  0  0  0  0  0  0  0
  -15.9273   -4.7515  -10.3522 N   0  0  0  0  0  0  0  0  0  0  0  0
  -14.5512   -6.3062   -8.3760 O   0  0  0  0  0  0  0  0  0  0  0  0
  -14.0536   -7.5385   -8.7879 C   0  0  0  0  0  0  0  0  0  0  0  0
  -12.7079   -7.8225   -8.2114 C   0  0  2  0  0  0  0  0  0  0  0  0
  -12.5004   -9.2528   -7.7658 C   0  0  1  0  0  0  0  0  0  0  0  0
  -12.1064  -10.0573   -8.8406 O   0  0  0  0  0  0  0  0  0  0  0  0
  -11.2851   -9.0749   -6.8725 C   0  0  1  0  0  0  0  0  0  0  0  0
  -10.1462   -9.1389   -7.6998 O   0  0  0  0  0  0  0  0  0  0  0  0
  -11.4262   -7.6502   -6.4084 C   0  0  1  0  0  0  0  0  0  0  0  0
  -12.5277   -7.0881   -7.0487 O   0  0  0  0  0  0  0  0  0  0  0  0
  -11.5932   -7.5259   -4.9904 N   0  0  0  0  0  0  0  0  0  0  0  0
  -10.7197   -7.0790   -4.0773 C   0  0  0  0  0  0  0  0  0  0  0  0
  -11.3207   -7.1212   -2.8233 C   0  0  0  0  0  0  0  0  0  0  0  0
  -12.5684   -7.6058   -3.0288 N   0  0  0  0  0  0  0  0  0  0  0  0
  -12.7109   -7.8405   -4.3262 C   0  0  0  0  0  0  0  0  0  0  0  0
   -9.4717   -6.6327   -4.1426 N   0  0  0  0  0  0  0  0  0  0  0  0
   -8.7607   -6.2219   -3.0825 C   0  0  0  0  0  0  0  0  0  0  0  0
   -9.3523   -6.2658   -1.8707 N   0  0  0  0  0  0  0  0  0  0  0  0
  -10.6147   -6.7056   -1.7201 C   0  0  0  0  0  0  0  0  0  0  0  0
  -11.1914   -6.7265   -0.4337 N   0  0  0  0  0  0  0  0  0  0  0  0
  -16.8533   -0.3218  -15.4892 H   0  0  0  0  0  0  0  0  0  0  0  0
  1  2  1  0
  4  1  1  0
  2  3  2  0
  4  5  1  6
  9  4  1  0
  5  6  1  0
  6  7  1  0
  7  8  1  0
  9 10  2  0
 11  9  1  0
 12 11  1  0
 13 12  1  0
 12 15  1  1
 13 14  2  0
 22 13  1  0
 15 16  1  0
 16 17  1  0
 17 18  1  0
 18 19  1  0
 19 20  1  0
 19 21  2  0
 23 22  1  6
 24 23  1  0
 23 26  1  0
 24 25  2  0
 29 24  1  0
 26 27  1  0
 26 28  1  6
 30 29  1  0
 31 30  1  0
 31 32  2  0
 33 31  1  0
 34 33  1  0
 35 34  1  0
 34 37  1  6
 35 36  2  0
 41 35  1  0
 37 38  1  0
 38 39  2  0
 38 40  1  0
 42 41  1  0
 43 42  1  0
 42 45  1  6
 43 44  2  0
 46 43  1  0
 47 46  1  0
 48 47  1  0
 47 50  1  6
 48 49  2  0
 57 48  1  0
 50 51  1  0
 51 52  2  0
 51 53  1  0
 55 54  2  0
 55 56  1  6
 55 57  1  0
 55 58  1  0
 58 59  1  0
 60 59  1  1
 60 61  1  0
 60 66  1  0
 61 62  1  6
 61 63  1  0
 63 64  1  6
 63 65  1  0
 65 66  1  0
 65 67  1  1
 67 68  1  0
 67 71  1  0
 68 69  2  0
 68 72  1  0
 69 70  1  0
 69 75  1  0
 70 71  2  0
 72 73  2  0
 73 74  1  0
 74 75  2  0
 75 76  1  0
 21 77  1  0
M  END
$$$$
