
     RDKit          3D

 77 79  0  0  0  0  0  0  0  0999 V2000
  -20.2151    6.5519  -48.3008 N   0  0  0  0  0  0  0  0  0  0  0  0
  -19.8556    5.6973  -47.2628 C   0  0  0  0  0  0  0  0  0  0  0  0
  -18.6587    5.4282  -46.9520 O   0  0  0  0  0  0  0  0  0  0  0  0
  -19.7909    6.2224  -49.6914 C   0  0  1  0  0  0  0  0  0  0  0  0
  -19.3137    7.4879  -50.3282 C   0  0  0  0  0  0  0  0  0  0  0  0
  -20.2166    8.6725  -50.1794 C   0  0  0  0  0  0  0  0  0  0  0  0
  -19.7309   10.1245  -51.0973 S   0  0  0  0  0  0  0  0  0  0  0  0
  -19.1145   11.5095  -50.1805 C   0  0  0  0  0  0  0  0  0  0  0  0
  -18.7284    5.1957  -49.4784 C   0  0  0  0  0  0  0  0  0  0  0  0
  -18.0035    5.2892  -48.4164 O   0  0  0  0  0  0  0  0  0  0  0  0
  -18.4130    4.1145  -50.3036 N   0  0  0  0  0  0  0  0  0  0  0  0
  -17.4249    3.0706  -49.9754 C   0  0  2  0  0  0  0  0  0  0  0  0
  -17.7864    2.4419  -48.6632 C   0  0  0  0  0  0  0  0  0  0  0  0
  -16.9005    2.4080  -47.7574 O   0  0  0  0  0  0  0  0  0  0  0  0
  -16.0852    3.7232  -49.8414 C   0  0  0  0  0  0  0  0  0  0  0  0
  -15.3102    3.8575  -51.1286 C   0  0  0  0  0  0  0  0  0  0  0  0
  -13.9303    3.2774  -50.9190 C   0  0  0  0  0  0  0  0  0  0  0  0
  -13.1593    3.2544  -52.1526 N   0  0  0  0  0  0  0  0  0  0  0  0
  -12.8549    4.4659  -52.8187 C   0  0  0  0  0  0  0  0  0  0  0  0
  -13.4727    5.6497  -52.3303 N   0  0  0  0  0  0  0  0  0  0  0  0
  -12.0624    4.5468  -53.8217 N   0  0  0  0  0  0  0  0  0  0  0  0
  -19.0606    1.8898  -48.3983 N   0  0  0  0  0  0  0  0  0  0  0  0
  -19.2738    0.7009  -47.5710 C   0  0  2  0  0  0  0  0  0  0  0  0
  -18.7603    0.9008  -46.2220 C   0  0  0  0  0  0  0  0  0  0  0  0
  -18.8735    0.0658  -45.2803 O   0  0  0  0  0  0  0  0  0  0  0  0
  -18.8171   -0.5358  -48.2659 C   0  0  2  0  0  0  0  0  0  0  0  0
  -17.5626   -0.4383  -48.8425 O   0  0  0  0  0  0  0  0  0  0  0  0
  -19.7926   -0.9635  -49.3541 C   0  0  0  0  0  0  0  0  0  0  0  0
  -18.0622    2.1031  -45.8703 N   0  0  0  0  0  0  0  0  0  0  0  0
  -17.5751    2.3308  -44.5465 C   0  0  0  0  0  0  0  0  0  0  0  0
  -16.2896    1.7502  -44.1956 C   0  0  0  0  0  0  0  0  0  0  0  0
  -15.4887    1.3680  -45.0752 O   0  0  0  0  0  0  0  0  0  0  0  0
  -15.9250    1.6162  -42.8370 N   0  0  0  0  0  0  0  0  0  0  0  0
  -14.6084    1.7326  -42.2939 C   0  0  2  0  0  0  0  0  0  0  0  0
  -14.0859    3.0861  -42.5010 C   0  0  0  0  0  0  0  0  0  0  0  0
  -12.9567    3.2193  -43.0509 O   0  0  0  0  0  0  0  0  0  0  0  0
  -13.6771    0.6895  -42.9176 C   0  0  0  0  0  0  0  0  0  0  0  0
  -13.0850    1.2448  -44.1647 C   0  0  0  0  0  0  0  0  0  0  0  0
  -12.2649    0.5684  -44.8087 O   0  0  0  0  0  0  0  0  0  0  0  0
  -13.4373    2.5335  -44.6348 N   0  0  0  0  0  0  0  0  0  0  0  0
  -14.8154    4.2240  -42.0977 N   0  0  0  0  0  0  0  0  0  0  0  0
  -14.2758    4.9332  -40.9310 C   0  0  2  0  0  0  0  0  0  0  0  0
  -13.8734    3.8688  -39.9509 C   0  0  0  0  0  0  0  0  0  0  0  0
  -12.7332    3.8641  -39.4865 O   0  0  0  0  0  0  0  0  0  0  0  0
  -15.3035    5.8073  -40.3041 C   0  0  0  0  0  0  0  0  0  0  0  0
  -14.8165    2.8687  -39.5530 N   0  0  0  0  0  0  0  0  0  0  0  0
  -15.0647    2.6805  -38.1638 C   0  0  2  0  0  0  0  0  0  0  0  0
  -14.3624    3.5656  -37.2359 C   0  0  0  0  0  0  0  0  0  0  0  0
  -14.6026    3.3784  -35.9901 O   0  0  0  0  0  0  0  0  0  0  0  0
  -14.8219    1.1937  -37.8639 C   0  0  0  0  0  0  0  0  0  0  0  0
  -14.9102    0.3859  -39.0780 C   0  0  0  0  0  0  0  0  0  0  0  0
  -15.9704    0.0149  -39.6601 O   0  0  0  0  0  0  0  0  0  0  0  0
  -13.6938   -0.0188  -39.6537 O   0  0  0  0  0  0  0  0  0  0  0  0
  -12.5178    4.9798  -35.2067 O   0  0  0  0  0  0  0  0  0  0  0  0
  -12.9004    5.7414  -36.4881 P   0  0  1  0  0  5  0  0  0  0  0  0
  -11.4505    6.4229  -37.0532 O   0  0  0  0  0  0  0  0  0  0  0  0
  -13.4639    4.5843  -37.6474 N   0  0  0  0  0  0  0  0  0  0  0  0
  -14.0005    6.9013  -36.0475 O   0  0  0  0  0  0  0  0  0  0  0  0
  -14.2131    7.0272  -34.6782 C   0  0  0  0  0  0  0  0  0  0  0  0
  -14.2041    8.4516  -34.2367 C   0  0  2  0  0  0  0  0  0  0  0  0
  -15.3839    9.2686  -34.7141 C   0  0  1  0  0  0  0  0  0  0  0  0
  -16.4797    9.1080  -33.8590 O   0  0  0  0  0  0  0  0  0  0  0  0
  -14.8419   10.6689  -34.4866 C   0  0  1  0  0  0  0  0  0  0  0  0
  -15.1139   11.0091  -33.1466 O   0  0  0  0  0  0  0  0  0  0  0  0
  -13.3553   10.4678  -34.6083 C   0  0  1  0  0  0  0  0  0  0  0  0
  -13.1101    9.1079  -34.7809 O   0  0  0  0  0  0  0  0  0  0  0  0
  -12.7686   11.1928  -35.6965 N   0  0  0  0  0  0  0  0  0  0  0  0
  -11.9631   12.2634  -35.6557 C   0  0  0  0  0  0  0  0  0  0  0  0
  -11.6255   12.6204  -36.9573 C   0  0  0  0  0  0  0  0  0  0  0  0
  -12.2565   11.7300  -37.7591 N   0  0  0  0  0  0  0  0  0  0  0  0
  -12.9320   10.8880  -36.9887 C   0  0  0  0  0  0  0  0  0  0  0  0
  -11.4606   12.9967  -34.6705 N   0  0  0  0  0  0  0  0  0  0  0  0
  -10.6527   14.0515  -34.8513 C   0  0  0  0  0  0  0  0  0  0  0  0
  -10.3303   14.3896  -36.1171 N   0  0  0  0  0  0  0  0  0  0  0  0
  -10.7989   13.6971  -37.1709 C   0  0  0  0  0  0  0  0  0  0  0  0
  -10.4281   14.0856  -38.4745 N   0  0  0  0  0  0  0  0  0  0  0  0
  -12.1652    3.8750  -54.6079 H   0  0  0  0  0  0  0  0  0  0  0  0
  1  2  1  0
  4  1  1  0
  2  3  2  0
  4  5  1  1
  9  4  1  0
  5  6  1  0
  6  7  1  0
  7  8  1  0
  9 10  2  0
 11  9  1  0
 12 11  1  0
 13 12  1  0
 12 15  1  1
 13 14  2  0
 22 13  1  0
 15 16  1  0
 16 17  1  0
 17 18  1  0
 18 19  1  0
 19 20  1  0
 19 21  2  0
 23 22  1  6
 24 23  1  0
 23 26  1  0
 24 25  2  0
 29 24  1  0
 26 27  1  0
 26 28  1  6
 30 29  1  0
 31 30  1  0
 31 32  2  0
 33 31  1  0
 34 33  1  0
 35 34  1  0
 34 37  1  6
 35 36  2  0
 41 35  1  0
 37 38  1  0
 38 39  2  0
 38 40  1  0
 42 41  1  0
 43 42  1  0
 42 45  1  1
 43 44  2  0
 46 43  1  0
 47 46  1  0
 48 47  1  0
 47 50  1  1
 48 49  2  0
 57 48  1  0
 50 51  1  0
 51 52  2  0
 51 53  1  0
 55 54  2  0
 55 56  1  6
 55 57  1  0
 55 58  1  0
 58 59  1  0
 60 59  1  6
 60 61  1  0
 60 66  1  0
 61 62  1  1
 61 63  1  0
 63 64  1  1
 63 65  1  0
 65 66  1  0
 65 67  1  6
 67 68  1  0
 67 71  1  0
 68 69  2  0
 68 72  1  0
 69 70  1  0
 69 75  1  0
 70 71  2  0
 72 73  2  0
 73 74  1  0
 74 75  2  0
 75 76  1  0
 21 77  1  0
M  END
$$$$
