
     RDKit          3D

 11 10  0  0  0  0  0  0  0  0999 V2000
  -28.9097  -37.6704   37.6857 C   0  0  0  0  0  0  0  0  0  0  0  0
  -28.5965  -38.5667   36.5295 C   0  0  0  0  0  0  0  0  0  0  0  0
  -27.1751  -38.4538   36.0515 C   0  0  0  0  0  0  0  0  0  0  0  0
  -26.0601  -39.6375   34.2791 C   0  0  0  0  0  0  0  0  0  0  0  0
  -24.6610  -39.2638   34.6411 C   0  0  0  0  0  0  0  0  0  0  0  0
  -23.6990  -40.2969   34.1404 C   0  0  0  0  0  0  0  0  0  0  0  0
  -22.2578  -39.9607   34.4472 C   0  0  0  0  0  0  0  0  0  0  0  0
  -21.4834  -39.7146   33.1718 C   0  0  0  0  0  0  0  0  0  0  0  0
  -29.6415  -36.5227   37.1613 N   0  0  0  0  0  4  0  0  0  0  0  0
  -27.0260  -38.6139   34.6386 N   0  0  0  0  0  4  0  0  0  0  0  0
  -19.7040  -39.5816   33.4776 S   0  0  0  0  0  0  0  0  0  0  0  0
  2  1  1  0
  1  9  1  0
  3  2  1  0
 10  3  1  0
  4  5  1  0
  4 10  1  0
  5  6  1  0
  6  7  1  0
  7  8  1  0
  8 11  1  0
M  CHG  2   9   1  10   1
M  END
$$$$
