
     RDKit          3D

 11 10  0  0  0  0  0  0  0  0999 V2000
   -3.6265  -12.0473   38.8750 C   0  0  0  0  0  0  0  0  0  0  0  0
   -2.3005  -12.4841   39.4127 C   0  0  0  0  0  0  0  0  0  0  0  0
   -2.0865  -13.9711   39.3446 C   0  0  0  0  0  0  0  0  0  0  0  0
   -0.1941  -14.9776   38.2530 C   0  0  0  0  0  0  0  0  0  0  0  0
   -0.1325  -16.4247   37.8921 C   0  0  0  0  0  0  0  0  0  0  0  0
    1.2749  -16.9276   37.9915 C   0  0  0  0  0  0  0  0  0  0  0  0
    1.4666  -18.2795   37.3437 C   0  0  0  0  0  0  0  0  0  0  0  0
    2.8721  -18.7880   37.5745 C   0  0  0  0  0  0  0  0  0  0  0  0
   -3.4421  -10.7283   38.2799 N   0  0  0  0  0  4  0  0  0  0  0  0
   -1.5269  -14.4183   38.1074 N   0  0  0  0  0  4  0  0  0  0  0  0
    3.1354  -20.4112   36.8172 S   0  0  0  0  0  0  0  0  0  0  0  0
  2  1  1  0
  1  9  1  0
  3  2  1  0
 10  3  1  0
  4  5  1  0
  4 10  1  0
  5  6  1  0
  6  7  1  0
  7  8  1  0
  8 11  1  0
M  CHG  2   9   1  10   1
M  END
$$$$
