
     RDKit          3D

 11 10  0  0  0  0  0  0  0  0999 V2000
   13.6509  -12.7864   17.2569 C   0  0  0  0  0  0  0  0  0  0  0  0
   12.4855  -12.8686   18.1914 C   0  0  0  0  0  0  0  0  0  0  0  0
   11.9692  -14.2679   18.3840 C   0  0  0  0  0  0  0  0  0  0  0  0
   10.1608  -15.8236   18.0752 C   0  0  0  0  0  0  0  0  0  0  0  0
    9.2217  -16.2220   16.9855 C   0  0  0  0  0  0  0  0  0  0  0  0
    8.0425  -16.9504   17.5536 C   0  0  0  0  0  0  0  0  0  0  0  0
    7.9944  -18.4052   17.1470 C   0  0  0  0  0  0  0  0  0  0  0  0
    6.9913  -18.6163   16.0350 C   0  0  0  0  0  0  0  0  0  0  0  0
   13.9781  -11.3745   17.0919 N   0  0  0  0  0  4  0  0  0  0  0  0
   10.6203  -14.4515   17.9473 N   0  0  0  0  0  4  0  0  0  0  0  0
    6.8812  -20.3560   15.5467 S   0  0  0  0  0  0  0  0  0  0  0  0
  2  1  1  0
  1  9  1  0
  3  2  1  0
 10  3  1  0
  4  5  1  0
  4 10  1  0
  5  6  1  0
  6  7  1  0
  7  8  1  0
  8 11  1  0
M  CHG  2   9   1  10   1
M  END
$$$$
