
     RDKit          3D

 11 10  0  0  0  0  0  0  0  0999 V2000
  -30.2980  -38.4407   36.4338 C   0  0  0  0  0  0  0  0  0  0  0  0
  -28.8698  -38.0007   36.3645 C   0  0  0  0  0  0  0  0  0  0  0  0
  -27.9178  -39.1091   36.0084 C   0  0  0  0  0  0  0  0  0  0  0  0
  -26.0194  -38.3605   34.7350 C   0  0  0  0  0  0  0  0  0  0  0  0
  -25.0686  -39.3752   34.1923 C   0  0  0  0  0  0  0  0  0  0  0  0
  -23.6980  -38.7863   34.0577 C   0  0  0  0  0  0  0  0  0  0  0  0
  -22.6132  -39.8327   33.9474 C   0  0  0  0  0  0  0  0  0  0  0  0
  -21.2573  -39.1820   33.7881 C   0  0  0  0  0  0  0  0  0  0  0  0
  -30.5395  -38.9242   37.7887 N   0  0  0  0  0  4  0  0  0  0  0  0
  -26.5419  -38.7221   36.0413 N   0  0  0  0  0  4  0  0  0  0  0  0
  -19.9555  -40.4015   33.4793 S   0  0  0  0  0  0  0  0  0  0  0  0
  2  1  1  0
  1  9  1  0
  3  2  1  0
 10  3  1  0
  4  5  1  0
  4 10  1  0
  5  6  1  0
  6  7  1  0
  7  8  1  0
  8 11  1  0
M  CHG  2   9   1  10   1
M  END
$$$$
