
     RDKit          3D

 11 10  0  0  0  0  0  0  0  0999 V2000
   -1.6539  -13.5553   38.3866 C   0  0  0  0  0  0  0  0  0  0  0  0
   -1.2010  -14.8392   39.0067 C   0  0  0  0  0  0  0  0  0  0  0  0
   -1.9159  -16.0488   38.4705 C   0  0  0  0  0  0  0  0  0  0  0  0
   -0.0558  -17.0999   37.3657 C   0  0  0  0  0  0  0  0  0  0  0  0
    0.3160  -17.9740   36.2142 C   0  0  0  0  0  0  0  0  0  0  0  0
   -0.3474  -17.4943   34.9598 C   0  0  0  0  0  0  0  0  0  0  0  0
    0.1883  -18.1631   33.7149 C   0  0  0  0  0  0  0  0  0  0  0  0
    0.1910  -17.1991   32.5496 C   0  0  0  0  0  0  0  0  0  0  0  0
   -1.0252  -12.4679   39.1282 N   0  0  0  0  0  4  0  0  0  0  0  0
   -1.3863  -16.5321   37.2336 N   0  0  0  0  0  4  0  0  0  0  0  0
   -0.4327  -17.9695   31.0348 S   0  0  0  0  0  0  0  0  0  0  0  0
  2  1  1  0
  1  9  1  0
  3  2  1  0
 10  3  1  0
  4  5  1  0
  4 10  1  0
  5  6  1  0
  6  7  1  0
  7  8  1  0
  8 11  1  0
M  CHG  2   9   1  10   1
M  END
$$$$
