
     RDKit          3D

 11 10  0  0  0  0  0  0  0  0999 V2000
  -20.3195  -38.7858   34.4450 C   0  0  0  0  0  0  0  0  0  0  0  0
  -20.5789  -39.7166   33.3029 C   0  0  0  0  0  0  0  0  0  0  0  0
  -21.8873  -40.4499   33.4127 C   0  0  0  0  0  0  0  0  0  0  0  0
  -24.2529  -40.1617   33.7397 C   0  0  0  0  0  0  0  0  0  0  0  0
  -24.9143  -39.2005   34.6706 C   0  0  0  0  0  0  0  0  0  0  0  0
  -26.2542  -39.7206   35.0921 C   0  0  0  0  0  0  0  0  0  0  0  0
  -26.9316  -38.8446   36.1205 C   0  0  0  0  0  0  0  0  0  0  0  0
  -28.3032  -39.3831   36.4610 C   0  0  0  0  0  0  0  0  0  0  0  0
  -18.9959  -38.2069   34.2430 N   0  0  0  0  0  4  0  0  0  0  0  0
  -23.0316  -39.6314   33.1587 N   0  0  0  0  0  4  0  0  0  0  0  0
  -29.1249  -38.3847   37.7280 S   0  0  0  0  0  0  0  0  0  0  0  0
  2  1  1  0
  1  9  1  0
  3  2  1  0
 10  3  1  0
  4  5  1  0
  4 10  1  0
  5  6  1  0
  6  7  1  0
  7  8  1  0
  8 11  1  0
M  CHG  2   9   1  10   1
M  END
$$$$
