
     RDKit          3D

 11 10  0  0  0  0  0  0  0  0999 V2000
   14.1078  -14.5588   34.2592 C   0  0  0  0  0  0  0  0  0  0  0  0
   14.7930  -14.7695   32.9461 C   0  0  0  0  0  0  0  0  0  0  0  0
   14.5213  -16.1178   32.3379 C   0  0  0  0  0  0  0  0  0  0  0  0
   13.6889  -16.1574   30.0815 C   0  0  0  0  0  0  0  0  0  0  0  0
   14.0273  -16.4047   28.6489 C   0  0  0  0  0  0  0  0  0  0  0  0
   13.6193  -17.7890   28.2479 C   0  0  0  0  0  0  0  0  0  0  0  0
   12.3891  -17.8118   27.3703 C   0  0  0  0  0  0  0  0  0  0  0  0
   12.3451  -19.0782   26.5448 C   0  0  0  0  0  0  0  0  0  0  0  0
   12.9639  -13.6862   34.0185 N   0  0  0  0  0  4  0  0  0  0  0  0
   14.8526  -16.2030   30.9498 N   0  0  0  0  0  4  0  0  0  0  0  0
   10.9601  -19.0761   25.3790 S   0  0  0  0  0  0  0  0  0  0  0  0
  2  1  1  0
  1  9  1  0
  3  2  1  0
 10  3  1  0
  4  5  1  0
  4 10  1  0
  5  6  1  0
  6  7  1  0
  7  8  1  0
  8 11  1  0
M  CHG  2   9   1  10   1
M  END
$$$$
