
     RDKit          3D

 11 10  0  0  0  0  0  0  0  0999 V2000
  -30.3549  -39.1368   36.4587 C   0  0  0  0  0  0  0  0  0  0  0  0
  -29.0146  -38.4723   36.4685 C   0  0  0  0  0  0  0  0  0  0  0  0
  -28.1498  -38.8498   35.2975 C   0  0  0  0  0  0  0  0  0  0  0  0
  -25.9117  -38.8702   34.4165 C   0  0  0  0  0  0  0  0  0  0  0  0
  -24.8143  -39.5630   35.1540 C   0  0  0  0  0  0  0  0  0  0  0  0
  -23.5095  -38.8639   34.9249 C   0  0  0  0  0  0  0  0  0  0  0  0
  -22.5702  -39.6427   34.0332 C   0  0  0  0  0  0  0  0  0  0  0  0
  -21.1322  -39.4111   34.4402 C   0  0  0  0  0  0  0  0  0  0  0  0
  -30.8420  -39.1551   37.8336 N   0  0  0  0  0  4  0  0  0  0  0  0
  -26.8642  -38.2245   35.3031 N   0  0  0  0  0  4  0  0  0  0  0  0
  -19.9721  -40.2152   33.3066 S   0  0  0  0  0  0  0  0  0  0  0  0
  2  1  1  0
  1  9  1  0
  3  2  1  0
 10  3  1  0
  4  5  1  0
  4 10  1  0
  5  6  1  0
  6  7  1  0
  7  8  1  0
  8 11  1  0
M  CHG  2   9   1  10   1
M  END
$$$$
