
     RDKit          3D

 11 10  0  0  0  0  0  0  0  0999 V2000
  -30.2449  -38.1705   36.3407 C   0  0  0  0  0  0  0  0  0  0  0  0
  -28.9973  -38.4495   35.5637 C   0  0  0  0  0  0  0  0  0  0  0  0
  -27.7372  -38.1077   36.3101 C   0  0  0  0  0  0  0  0  0  0  0  0
  -26.0161  -38.9008   34.8288 C   0  0  0  0  0  0  0  0  0  0  0  0
  -24.5786  -39.3010   34.8699 C   0  0  0  0  0  0  0  0  0  0  0  0
  -23.9635  -39.1768   33.5098 C   0  0  0  0  0  0  0  0  0  0  0  0
  -22.7219  -40.0222   33.3432 C   0  0  0  0  0  0  0  0  0  0  0  0
  -21.5822  -39.4660   34.1670 C   0  0  0  0  0  0  0  0  0  0  0  0
  -29.8714  -38.0851   37.7482 N   0  0  0  0  0  4  0  0  0  0  0  0
  -26.6768  -39.0463   36.1143 N   0  0  0  0  0  4  0  0  0  0  0  0
  -19.9694  -39.9225   33.4831 S   0  0  0  0  0  0  0  0  0  0  0  0
  2  1  1  0
  1  9  1  0
  3  2  1  0
 10  3  1  0
  4  5  1  0
  4 10  1  0
  5  6  1  0
  6  7  1  0
  7  8  1  0
  8 11  1  0
M  CHG  2   9   1  10   1
M  END
$$$$
