
     RDKit          3D

 11 10  0  0  0  0  0  0  0  0999 V2000
  -20.5625  -39.6388   32.8883 C   0  0  0  0  0  0  0  0  0  0  0  0
  -22.0081  -39.3775   33.1712 C   0  0  0  0  0  0  0  0  0  0  0  0
  -22.6272  -40.3815   34.1043 C   0  0  0  0  0  0  0  0  0  0  0  0
  -24.5287  -39.0041   34.6268 C   0  0  0  0  0  0  0  0  0  0  0  0
  -25.8464  -39.4202   35.1914 C   0  0  0  0  0  0  0  0  0  0  0  0
  -25.9765  -38.9551   36.6092 C   0  0  0  0  0  0  0  0  0  0  0  0
  -27.2604  -38.2010   36.8685 C   0  0  0  0  0  0  0  0  0  0  0  0
  -27.3604  -37.8006   38.3234 C   0  0  0  0  0  0  0  0  0  0  0  0
  -19.7905  -38.6159   33.5850 N   0  0  0  0  0  4  0  0  0  0  0  0
  -23.4232  -39.7961   35.1375 N   0  0  0  0  0  4  0  0  0  0  0  0
  -28.6513  -36.5607   38.5950 S   0  0  0  0  0  0  0  0  0  0  0  0
  2  1  1  0
  1  9  1  0
  3  2  1  0
 10  3  1  0
  4  5  1  0
  4 10  1  0
  5  6  1  0
  6  7  1  0
  7  8  1  0
  8 11  1  0
M  CHG  2   9   1  10   1
M  END
$$$$
