
     RDKit          3D

 11 10  0  0  0  0  0  0  0  0999 V2000
  -30.2839  -38.1671   35.5153 C   0  0  0  0  0  0  0  0  0  0  0  0
  -28.8328  -37.8414   35.3535 C   0  0  0  0  0  0  0  0  0  0  0  0
  -27.9327  -39.0404   35.4705 C   0  0  0  0  0  0  0  0  0  0  0  0
  -25.8142  -39.6931   34.5368 C   0  0  0  0  0  0  0  0  0  0  0  0
  -24.4190  -39.2554   34.2365 C   0  0  0  0  0  0  0  0  0  0  0  0
  -23.4345  -40.2555   34.7600 C   0  0  0  0  0  0  0  0  0  0  0  0
  -22.2624  -40.4731   33.8311 C   0  0  0  0  0  0  0  0  0  0  0  0
  -21.2804  -39.3274   33.9324 C   0  0  0  0  0  0  0  0  0  0  0  0
  -30.6962  -37.6793   36.8267 N   0  0  0  0  0  4  0  0  0  0  0  0
  -26.5418  -38.7331   35.3487 N   0  0  0  0  0  4  0  0  0  0  0  0
  -19.6642  -39.7605   33.2413 S   0  0  0  0  0  0  0  0  0  0  0  0
  2  1  1  0
  1  9  1  0
  3  2  1  0
 10  3  1  0
  4  5  1  0
  4 10  1  0
  5  6  1  0
  6  7  1  0
  7  8  1  0
  8 11  1  0
M  CHG  2   9   1  10   1
M  END
$$$$
