
     RDKit          3D

 11 10  0  0  0  0  0  0  0  0999 V2000
  -30.0805  -39.0157   35.0709 C   0  0  0  0  0  0  0  0  0  0  0  0
  -28.8520  -38.4842   34.4026 C   0  0  0  0  0  0  0  0  0  0  0  0
  -27.6311  -39.3320   34.6311 C   0  0  0  0  0  0  0  0  0  0  0  0
  -25.4482  -39.5197   35.6238 C   0  0  0  0  0  0  0  0  0  0  0  0
  -24.6801  -39.6600   34.3516 C   0  0  0  0  0  0  0  0  0  0  0  0
  -23.3167  -40.2172   34.6243 C   0  0  0  0  0  0  0  0  0  0  0  0
  -22.2829  -39.7697   33.6168 C   0  0  0  0  0  0  0  0  0  0  0  0
  -20.9075  -40.2623   34.0079 C   0  0  0  0  0  0  0  0  0  0  0  0
  -30.8336  -37.8713   35.5718 N   0  0  0  0  0  4  0  0  0  0  0  0
  -26.6494  -38.7176   35.4694 N   0  0  0  0  0  4  0  0  0  0  0  0
  -19.6369  -39.7128   32.8413 S   0  0  0  0  0  0  0  0  0  0  0  0
  2  1  1  0
  1  9  1  0
  3  2  1  0
 10  3  1  0
  4  5  1  0
  4 10  1  0
  5  6  1  0
  6  7  1  0
  7  8  1  0
  8 11  1  0
M  CHG  2   9   1  10   1
M  END
$$$$
