
     RDKit          3D

 11 10  0  0  0  0  0  0  0  0999 V2000
  -30.2978  -38.3283   36.4188 C   0  0  0  0  0  0  0  0  0  0  0  0
  -28.9067  -38.8527   36.5864 C   0  0  0  0  0  0  0  0  0  0  0  0
  -28.0001  -38.5264   35.4317 C   0  0  0  0  0  0  0  0  0  0  0  0
  -25.7649  -38.5233   34.5432 C   0  0  0  0  0  0  0  0  0  0  0  0
  -24.7663  -39.5974   34.2651 C   0  0  0  0  0  0  0  0  0  0  0  0
  -23.3777  -39.0361   34.2836 C   0  0  0  0  0  0  0  0  0  0  0  0
  -22.3120  -40.0995   34.4163 C   0  0  0  0  0  0  0  0  0  0  0  0
  -21.6544  -40.3666   33.0809 C   0  0  0  0  0  0  0  0  0  0  0  0
  -31.1583  -39.4660   36.1138 N   0  0  0  0  0  4  0  0  0  0  0  0
  -26.6247  -38.8340   35.6720 N   0  0  0  0  0  4  0  0  0  0  0  0
  -19.8893  -39.9654   33.1055 S   0  0  0  0  0  0  0  0  0  0  0  0
  2  1  1  0
  1  9  1  0
  3  2  1  0
 10  3  1  0
  4  5  1  0
  4 10  1  0
  5  6  1  0
  6  7  1  0
  7  8  1  0
  8 11  1  0
M  CHG  2   9   1  10   1
M  END
$$$$
