
     RDKit          3D

 11 10  0  0  0  0  0  0  0  0999 V2000
   -0.0207  -11.5944   40.4801 C   0  0  0  0  0  0  0  0  0  0  0  0
   -1.3367  -12.2946   40.3536 C   0  0  0  0  0  0  0  0  0  0  0  0
   -1.5465  -12.9381   39.0106 C   0  0  0  0  0  0  0  0  0  0  0  0
   -1.0611  -15.0537   37.9742 C   0  0  0  0  0  0  0  0  0  0  0  0
   -0.2863  -16.2460   38.4284 C   0  0  0  0  0  0  0  0  0  0  0  0
    0.2774  -16.9811   37.2514 C   0  0  0  0  0  0  0  0  0  0  0  0
    1.1047  -18.1828   37.6458 C   0  0  0  0  0  0  0  0  0  0  0  0
    1.9313  -18.6695   36.4766 C   0  0  0  0  0  0  0  0  0  0  0  0
    0.4595  -11.8120   41.8402 N   0  0  0  0  0  4  0  0  0  0  0  0
   -1.7132  -14.3568   39.0693 N   0  0  0  0  0  4  0  0  0  0  0  0
    2.8926  -20.1447   36.8972 S   0  0  0  0  0  0  0  0  0  0  0  0
  2  1  1  0
  1  9  1  0
  3  2  1  0
 10  3  1  0
  4  5  1  0
  4 10  1  0
  5  6  1  0
  6  7  1  0
  7  8  1  0
  8 11  1  0
M  CHG  2   9   1  10   1
M  END
$$$$
