
     RDKit          3D

 11 10  0  0  0  0  0  0  0  0999 V2000
  -19.9793  -39.7206   33.0890 C   0  0  0  0  0  0  0  0  0  0  0  0
  -21.0264  -40.0706   34.0984 C   0  0  0  0  0  0  0  0  0  0  0  0
  -22.3848  -39.5148   33.7703 C   0  0  0  0  0  0  0  0  0  0  0  0
  -24.1180  -38.7102   35.2312 C   0  0  0  0  0  0  0  0  0  0  0  0
  -25.1959  -38.8192   34.2043 C   0  0  0  0  0  0  0  0  0  0  0  0
  -26.5230  -39.0403   34.8626 C   0  0  0  0  0  0  0  0  0  0  0  0
  -27.6387  -39.2908   33.8744 C   0  0  0  0  0  0  0  0  0  0  0  0
  -28.9676  -39.4070   34.5869 C   0  0  0  0  0  0  0  0  0  0  0  0
  -19.3545  -38.4761   33.5231 N   0  0  0  0  0  4  0  0  0  0  0  0
  -22.8092  -38.4697   34.6487 N   0  0  0  0  0  4  0  0  0  0  0  0
  -30.3161  -39.7908   33.4418 S   0  0  0  0  0  0  0  0  0  0  0  0
  2  1  1  0
  1  9  1  0
  3  2  1  0
 10  3  1  0
  4  5  1  0
  4 10  1  0
  5  6  1  0
  6  7  1  0
  7  8  1  0
  8 11  1  0
M  CHG  2   9   1  10   1
M  END
$$$$
