
     RDKit          3D

 20 22  0  0  0  0  0  0  0  0999 V2000
   -4.5372    5.8969  -20.1292 N   0  0  0  0  0  0  0  0  0  0  0  0
   -4.3658    6.8532  -19.1674 C   0  0  0  0  0  0  0  0  0  0  0  0
   -4.7444    8.1402  -19.4316 C   0  0  0  0  0  0  0  0  0  0  0  0
   -5.3011    8.4578  -20.6847 C   0  0  0  0  0  0  0  0  0  0  0  0
   -5.2168    5.1607  -22.2714 C   0  0  1  0  0  0  0  0  0  0  0  0
   -4.6033    9.2012  -18.4344 C   0  0  0  0  0  0  0  0  0  0  0  0
   -4.2476    3.7585  -24.0389 C   0  0  0  0  0  0  0  0  0  0  0  0
   -2.6130    7.1523  -17.4940 C   0  0  0  0  0  0  0  0  0  0  0  0
   -2.6579    5.9589  -15.4275 C   0  0  0  0  0  0  0  0  0  0  0  0
   -5.0683    6.2021  -21.3228 N   0  0  0  0  0  0  0  0  0  0  0  0
   -2.0482    6.8759  -16.2765 C   0  0  0  0  0  0  0  0  0  0  0  0
   -3.9120    4.7125  -22.9188 C   0  0  0  0  0  0  0  0  0  0  0  0
   -5.9382    7.6763  -22.7454 O   0  0  0  0  0  0  0  0  0  0  0  0
   -4.3780    5.6125  -17.0196 C   0  0  0  0  0  0  0  0  0  0  0  0
   -3.8007    6.5076  -17.8721 C   0  0  0  0  0  0  0  0  0  0  0  0
   -5.1233    2.6968  -23.6617 N   0  0  0  0  0  4  0  0  0  0  0  0
   -5.9867    3.9566  -21.8396 C   0  0  0  0  0  0  0  0  0  0  0  0
   -3.8189    5.3290  -15.7971 C   0  0  0  0  0  0  0  0  0  0  0  0
   -6.3849    3.2478  -23.1488 C   0  0  0  0  0  0  0  0  0  0  0  0
   -5.4488    7.4533  -21.6131 C   0  0  0  0  0  0  0  0  0  0  0  0
  2  1  2  0
  1 10  1  0
  2  3  1  0
 15  2  1  0
  3  4  2  0
  3  6  1  0
  4 20  1  0
  5 10  1  1
  5 12  1  0
  5 17  1  0
 12  7  1  0
  7 16  1  0
  8 11  2  0
  8 15  1  0
 11  9  1  0
  9 18  2  0
 10 20  1  0
 20 13  2  0
 15 14  2  0
 14 18  1  0
 16 19  1  0
 17 19  1  0
M  CHG  1  16   1
M  END
$$$$
