
     RDKit          3D

 20 22  0  0  0  0  0  0  0  0999 V2000
   -4.8061    5.8865  -21.7011 N   0  0  0  0  0  0  0  0  0  0  0  0
   -4.7578    6.3158  -20.4041 C   0  0  0  0  0  0  0  0  0  0  0  0
   -4.0154    5.6130  -19.4961 C   0  0  0  0  0  0  0  0  0  0  0  0
   -3.3168    4.4634  -19.9103 C   0  0  0  0  0  0  0  0  0  0  0  0
   -4.2341    4.4043  -23.4529 C   0  0  1  0  0  0  0  0  0  0  0  0
   -3.9107    6.0357  -18.0996 C   0  0  0  0  0  0  0  0  0  0  0  0
   -5.4337    3.2090  -25.2310 C   0  0  0  0  0  0  0  0  0  0  0  0
   -5.2427    8.6870  -20.7265 C   0  0  0  0  0  0  0  0  0  0  0  0
   -6.8023    9.8327  -19.3294 C   0  0  0  0  0  0  0  0  0  0  0  0
   -4.1391    4.7906  -22.0935 N   0  0  0  0  0  0  0  0  0  0  0  0
   -5.9057    9.8388  -20.3922 C   0  0  0  0  0  0  0  0  0  0  0  0
   -5.5566    3.7451  -23.8258 C   0  0  0  0  0  0  0  0  0  0  0  0
   -2.8033    3.0651  -21.6550 O   0  0  0  0  0  0  0  0  0  0  0  0
   -6.3601    7.5352  -18.9556 C   0  0  0  0  0  0  0  0  0  0  0  0
   -5.4749    7.5132  -19.9934 C   0  0  0  0  0  0  0  0  0  0  0  0
   -4.9507    4.1586  -26.1804 N   0  0  0  0  0  4  0  0  0  0  0  0
   -3.8989    5.4392  -24.4756 C   0  0  0  0  0  0  0  0  0  0  0  0
   -7.0293    8.6852  -18.6131 C   0  0  0  0  0  0  0  0  0  0  0  0
   -3.6276    4.6473  -25.7695 C   0  0  0  0  0  0  0  0  0  0  0  0
   -3.4034    4.0797  -21.2286 C   0  0  0  0  0  0  0  0  0  0  0  0
  2  1  2  0
  1 10  1  0
  2  3  1  0
 15  2  1  0
  3  4  2  0
  3  6  1  0
  4 20  1  0
  5 10  1  1
  5 12  1  0
  5 17  1  0
 12  7  1  0
  7 16  1  0
  8 11  2  0
  8 15  1  0
 11  9  1  0
  9 18  2  0
 10 20  1  0
 20 13  2  0
 15 14  2  0
 14 18  1  0
 16 19  1  0
 17 19  1  0
M  CHG  1  16   1
M  END
$$$$
