
     RDKit          3D

 20 22  0  0  0  0  0  0  0  0999 V2000
   -4.3667    6.8030  -20.1782 N   0  0  0  0  0  0  0  0  0  0  0  0
   -4.0797    6.9632  -18.8513 C   0  0  0  0  0  0  0  0  0  0  0  0
   -2.8999    7.5525  -18.4904 C   0  0  0  0  0  0  0  0  0  0  0  0
   -2.0038    7.9819  -19.4873 C   0  0  0  0  0  0  0  0  0  0  0  0
   -3.8738    7.0156  -22.4814 C   0  0  1  0  0  0  0  0  0  0  0  0
   -2.5480    7.7681  -17.0870 C   0  0  0  0  0  0  0  0  0  0  0  0
   -4.9880    7.8324  -24.5115 C   0  0  0  0  0  0  0  0  0  0  0  0
   -5.4192    7.4709  -16.8739 C   0  0  0  0  0  0  0  0  0  0  0  0
   -6.8268    5.8220  -15.8755 C   0  0  0  0  0  0  0  0  0  0  0  0
   -3.5110    7.2133  -21.1266 N   0  0  0  0  0  0  0  0  0  0  0  0
   -6.3179    7.1158  -15.9023 C   0  0  0  0  0  0  0  0  0  0  0  0
   -4.4662    8.2464  -23.1573 C   0  0  0  0  0  0  0  0  0  0  0  0
   -1.5891    8.1556  -21.7370 O   0  0  0  0  0  0  0  0  0  0  0  0
   -5.5367    5.2638  -17.7828 C   0  0  0  0  0  0  0  0  0  0  0  0
   -5.0214    6.5260  -17.8321 C   0  0  0  0  0  0  0  0  0  0  0  0
   -4.0486    7.1087  -25.3052 N   0  0  0  0  0  4  0  0  0  0  0  0
   -2.8415    6.4156  -23.3778 C   0  0  0  0  0  0  0  0  0  0  0  0
   -6.4380    4.8987  -16.8122 C   0  0  0  0  0  0  0  0  0  0  0  0
   -3.6271    5.8930  -24.5963 C   0  0  0  0  0  0  0  0  0  0  0  0
   -2.3469    7.7937  -20.8063 C   0  0  0  0  0  0  0  0  0  0  0  0
  2  1  2  0
  1 10  1  0
  2  3  1  0
 15  2  1  0
  3  4  2  0
  3  6  1  0
  4 20  1  0
  5 10  1  1
  5 12  1  0
  5 17  1  0
 12  7  1  0
  7 16  1  0
  8 11  2  0
  8 15  1  0
 11  9  1  0
  9 18  2  0
 10 20  1  0
 20 13  2  0
 15 14  2  0
 14 18  1  0
 16 19  1  0
 17 19  1  0
M  CHG  1  16   1
M  END
$$$$
