
     RDKit          3D

 20 22  0  0  0  0  0  0  0  0999 V2000
    3.9660    6.1381   -8.6029 N   0  0  0  0  0  0  0  0  0  0  0  0
    3.2690    7.3102   -8.6979 C   0  0  0  0  0  0  0  0  0  0  0  0
    1.9219    7.2684   -8.9281 C   0  0  0  0  0  0  0  0  0  0  0  0
    1.2781    6.0240   -9.0637 C   0  0  0  0  0  0  0  0  0  0  0  0
    4.1348    3.7792   -8.6219 C   0  0  1  0  0  0  0  0  0  0  0  0
    1.1212    8.4892   -9.0197 C   0  0  0  0  0  0  0  0  0  0  0  0
    6.0558    2.4438   -9.3675 C   0  0  0  0  0  0  0  0  0  0  0  0
    5.1581    8.7637   -9.2278 C   0  0  0  0  0  0  0  0  0  0  0  0
    5.2986   10.9797   -8.3523 C   0  0  0  0  0  0  0  0  0  0  0  0
    3.3501    4.9533   -8.7322 N   0  0  0  0  0  0  0  0  0  0  0  0
    5.8275    9.9553   -9.1299 C   0  0  0  0  0  0  0  0  0  0  0  0
    5.4365    3.8192   -9.4134 C   0  0  0  0  0  0  0  0  0  0  0  0
    1.5137    3.7420   -9.0706 O   0  0  0  0  0  0  0  0  0  0  0  0
    3.4494    9.6105   -7.7875 C   0  0  0  0  0  0  0  0  0  0  0  0
    3.9458    8.5887   -8.5429 C   0  0  0  0  0  0  0  0  0  0  0  0
    6.1713    1.8967   -8.0547 N   0  0  0  0  0  4  0  0  0  0  0  0
    4.4168    3.2808   -7.2431 C   0  0  0  0  0  0  0  0  0  0  0  0
    4.1137   10.8085   -7.6832 C   0  0  0  0  0  0  0  0  0  0  0  0
    4.8443    1.8120   -7.4301 C   0  0  0  0  0  0  0  0  0  0  0  0
    2.0319    4.8779   -8.9587 C   0  0  0  0  0  0  0  0  0  0  0  0
  2  1  2  0
  1 10  1  0
  2  3  1  0
 15  2  1  0
  3  4  2  0
  3  6  1  0
  4 20  1  0
  5 10  1  1
  5 12  1  0
  5 17  1  0
 12  7  1  0
  7 16  1  0
  8 11  2  0
  8 15  1  0
 11  9  1  0
  9 18  2  0
 10 20  1  0
 20 13  2  0
 15 14  2  0
 14 18  1  0
 16 19  1  0
 17 19  1  0
M  CHG  1  16   1
M  END
$$$$
