
     RDKit          3D

 20 22  0  0  0  0  0  0  0  0999 V2000
   -4.3852    6.1138  -20.7747 N   0  0  0  0  0  0  0  0  0  0  0  0
   -4.1521    6.6291  -19.5301 C   0  0  0  0  0  0  0  0  0  0  0  0
   -4.8563    6.1423  -18.4640 C   0  0  0  0  0  0  0  0  0  0  0  0
   -5.8064    5.1235  -18.6653 C   0  0  0  0  0  0  0  0  0  0  0  0
   -5.4804    4.6557  -22.2805 C   0  0  1  0  0  0  0  0  0  0  0  0
   -4.6355    6.6412  -17.1067 C   0  0  0  0  0  0  0  0  0  0  0  0
   -6.4611    4.9316  -24.5148 C   0  0  0  0  0  0  0  0  0  0  0  0
   -3.5508    8.8117  -18.6155 C   0  0  0  0  0  0  0  0  0  0  0  0
   -1.3502    9.6989  -18.8747 C   0  0  0  0  0  0  0  0  0  0  0  0
   -5.2911    5.1425  -20.9639 N   0  0  0  0  0  0  0  0  0  0  0  0
   -2.6477    9.8171  -18.3888 C   0  0  0  0  0  0  0  0  0  0  0  0
   -6.1407    5.6508  -23.2273 C   0  0  0  0  0  0  0  0  0  0  0  0
   -6.8300    3.7381  -20.1805 O   0  0  0  0  0  0  0  0  0  0  0  0
   -1.8783    7.5829  -19.8004 C   0  0  0  0  0  0  0  0  0  0  0  0
   -3.1577    7.6731  -19.3355 C   0  0  0  0  0  0  0  0  0  0  0  0
   -5.3620    4.2134  -25.0740 N   0  0  0  0  0  4  0  0  0  0  0  0
   -4.2936    4.0524  -22.9562 C   0  0  0  0  0  0  0  0  0  0  0  0
   -0.9662    8.5859  -19.5782 C   0  0  0  0  0  0  0  0  0  0  0  0
   -4.8758    3.2154  -24.1118 C   0  0  0  0  0  0  0  0  0  0  0  0
   -5.9980    4.6445  -19.9406 C   0  0  0  0  0  0  0  0  0  0  0  0
  2  1  2  0
  1 10  1  0
  2  3  1  0
 15  2  1  0
  3  4  2  0
  3  6  1  0
  4 20  1  0
  5 10  1  1
  5 12  1  0
  5 17  1  0
 12  7  1  0
  7 16  1  0
  8 11  2  0
  8 15  1  0
 11  9  1  0
  9 18  2  0
 10 20  1  0
 20 13  2  0
 15 14  2  0
 14 18  1  0
 16 19  1  0
 17 19  1  0
M  CHG  1  16   1
M  END
$$$$
