
     RDKit          3D

 20 22  0  0  0  0  0  0  0  0999 V2000
   -2.2490   -4.0715  -13.1247 N   0  0  0  0  0  0  0  0  0  0  0  0
   -2.3817   -3.4844  -11.8973 C   0  0  0  0  0  0  0  0  0  0  0  0
   -1.9938   -4.1745  -10.7825 C   0  0  0  0  0  0  0  0  0  0  0  0
   -1.4675   -5.4730  -10.9168 C   0  0  0  0  0  0  0  0  0  0  0  0
   -1.6379   -5.8548  -14.5528 C   0  0  1  0  0  0  0  0  0  0  0  0
   -2.0939   -3.5900   -9.4452 C   0  0  0  0  0  0  0  0  0  0  0  0
   -2.7213   -6.6565  -16.6053 C   0  0  0  0  0  0  0  0  0  0  0  0
   -3.8990   -1.9187  -10.7980 C   0  0  0  0  0  0  0  0  0  0  0  0
   -3.9742    0.3819  -11.4290 C   0  0  0  0  0  0  0  0  0  0  0  0
   -1.7468   -5.3092  -13.2502 N   0  0  0  0  0  0  0  0  0  0  0  0
   -4.4227   -0.6637  -10.6296 C   0  0  0  0  0  0  0  0  0  0  0  0
   -2.9447   -5.8705  -15.3366 C   0  0  0  0  0  0  0  0  0  0  0  0
   -0.8971   -7.1634  -12.3591 O   0  0  0  0  0  0  0  0  0  0  0  0
   -2.4933   -1.0927  -12.5453 C   0  0  0  0  0  0  0  0  0  0  0  0
   -2.9155   -2.1366  -11.7751 C   0  0  0  0  0  0  0  0  0  0  0  0
   -1.5792   -6.2457  -17.3558 N   0  0  0  0  0  4  0  0  0  0  0  0
   -0.5522   -5.3149  -15.4240 C   0  0  0  0  0  0  0  0  0  0  0  0
   -3.0128    0.1688  -12.3838 C   0  0  0  0  0  0  0  0  0  0  0  0
   -0.3689   -6.3700  -16.5322 C   0  0  0  0  0  0  0  0  0  0  0  0
   -1.3583   -6.0120  -12.1778 C   0  0  0  0  0  0  0  0  0  0  0  0
  2  1  2  0
  1 10  1  0
  2  3  1  0
 15  2  1  0
  3  4  2  0
  3  6  1  0
  4 20  1  0
  5 10  1  1
  5 12  1  0
  5 17  1  0
 12  7  1  0
  7 16  1  0
  8 11  2  0
  8 15  1  0
 11  9  1  0
  9 18  2  0
 10 20  1  0
 20 13  2  0
 15 14  2  0
 14 18  1  0
 16 19  1  0
 17 19  1  0
M  CHG  1  16   1
M  END
$$$$
