
     RDKit          3D

 20 22  0  0  0  0  0  0  0  0999 V2000
   -4.2961    5.8692  -20.9961 N   0  0  0  0  0  0  0  0  0  0  0  0
   -4.2377    6.6813  -19.8979 C   0  0  0  0  0  0  0  0  0  0  0  0
   -4.2128    6.1179  -18.6523 C   0  0  0  0  0  0  0  0  0  0  0  0
   -4.2486    4.7169  -18.5222 C   0  0  0  0  0  0  0  0  0  0  0  0
   -4.3897    3.7544  -22.0505 C   0  0  1  0  0  0  0  0  0  0  0  0
   -4.1307    6.9357  -17.4422 C   0  0  0  0  0  0  0  0  0  0  0  0
   -5.6884    2.8826  -23.9434 C   0  0  0  0  0  0  0  0  0  0  0  0
   -5.1472    8.7219  -20.8831 C   0  0  0  0  0  0  0  0  0  0  0  0
   -4.2142   10.8609  -20.3818 C   0  0  0  0  0  0  0  0  0  0  0  0
   -4.3298    4.5340  -20.8694 N   0  0  0  0  0  0  0  0  0  0  0  0
   -5.1560   10.0825  -21.0458 C   0  0  0  0  0  0  0  0  0  0  0  0
   -5.6830    3.9131  -22.8409 C   0  0  0  0  0  0  0  0  0  0  0  0
   -4.3413    2.6990  -19.6097 O   0  0  0  0  0  0  0  0  0  0  0  0
   -3.2763    8.9149  -19.4087 C   0  0  0  0  0  0  0  0  0  0  0  0
   -4.1884    8.1275  -20.0484 C   0  0  0  0  0  0  0  0  0  0  0  0
   -4.5019    2.8662  -24.7359 N   0  0  0  0  0  4  0  0  0  0  0  0
   -3.2304    3.8531  -22.9861 C   0  0  0  0  0  0  0  0  0  0  0  0
   -3.2773   10.2797  -19.5659 C   0  0  0  0  0  0  0  0  0  0  0  0
   -3.3348    2.6042  -23.8829 C   0  0  0  0  0  0  0  0  0  0  0  0
   -4.3074    3.9509  -19.6635 C   0  0  0  0  0  0  0  0  0  0  0  0
  2  1  2  0
  1 10  1  0
  2  3  1  0
 15  2  1  0
  3  4  2  0
  3  6  1  0
  4 20  1  0
  5 10  1  1
  5 12  1  0
  5 17  1  0
 12  7  1  0
  7 16  1  0
  8 11  2  0
  8 15  1  0
 11  9  1  0
  9 18  2  0
 10 20  1  0
 20 13  2  0
 15 14  2  0
 14 18  1  0
 16 19  1  0
 17 19  1  0
M  CHG  1  16   1
M  END
$$$$
