
     RDKit          3D

 20 22  0  0  0  0  0  0  0  0999 V2000
   -4.1743    6.5434  -21.7447 N   0  0  0  0  0  0  0  0  0  0  0  0
   -3.8166    6.9651  -20.4945 C   0  0  0  0  0  0  0  0  0  0  0  0
   -2.4907    7.0341  -20.1677 C   0  0  0  0  0  0  0  0  0  0  0  0
   -1.5202    6.6703  -21.1201 C   0  0  0  0  0  0  0  0  0  0  0  0
   -3.6902    5.7702  -23.9266 C   0  0  1  0  0  0  0  0  0  0  0  0
   -2.0480    7.4965  -18.8524 C   0  0  0  0  0  0  0  0  0  0  0  0
   -4.6616    4.0204  -25.3494 C   0  0  0  0  0  0  0  0  0  0  0  0
   -4.8436    6.6660  -18.2995 C   0  0  0  0  0  0  0  0  0  0  0  0
   -6.6822    8.0168  -17.5987 C   0  0  0  0  0  0  0  0  0  0  0  0
   -3.2474    6.1975  -22.6508 N   0  0  0  0  0  0  0  0  0  0  0  0
   -5.7670    7.0014  -17.3442 C   0  0  0  0  0  0  0  0  0  0  0  0
   -4.4373    4.4419  -23.9178 C   0  0  0  0  0  0  0  0  0  0  0  0
   -1.1223    5.9170  -23.2502 O   0  0  0  0  0  0  0  0  0  0  0  0
   -5.7396    8.3425  -19.7478 C   0  0  0  0  0  0  0  0  0  0  0  0
   -4.8305    7.3501  -19.5247 C   0  0  0  0  0  0  0  0  0  0  0  0
   -5.2456    5.0292  -26.1726 N   0  0  0  0  0  4  0  0  0  0  0  0
   -4.4583    6.7572  -24.7419 C   0  0  0  0  0  0  0  0  0  0  0  0
   -6.6692    8.6855  -18.7962 C   0  0  0  0  0  0  0  0  0  0  0  0
   -4.3881    6.2220  -26.1854 C   0  0  0  0  0  0  0  0  0  0  0  0
   -1.9404    6.2533  -22.3620 C   0  0  0  0  0  0  0  0  0  0  0  0
  2  1  2  0
  1 10  1  0
  2  3  1  0
 15  2  1  0
  3  4  2  0
  3  6  1  0
  4 20  1  0
  5 10  1  1
  5 12  1  0
  5 17  1  0
 12  7  1  0
  7 16  1  0
  8 11  2  0
  8 15  1  0
 11  9  1  0
  9 18  2  0
 10 20  1  0
 20 13  2  0
 15 14  2  0
 14 18  1  0
 16 19  1  0
 17 19  1  0
M  CHG  1  16   1
M  END
$$$$
