
     RDKit          3D

 20 22  0  0  0  0  0  0  0  0999 V2000
   -3.7974    7.3266  -20.3414 N   0  0  0  0  0  0  0  0  0  0  0  0
   -4.1993    7.1668  -19.0445 C   0  0  0  0  0  0  0  0  0  0  0  0
   -5.5200    6.9326  -18.7796 C   0  0  0  0  0  0  0  0  0  0  0  0
   -6.4402    6.8613  -19.8423 C   0  0  0  0  0  0  0  0  0  0  0  0
   -4.1895    7.4328  -22.6712 C   0  0  1  0  0  0  0  0  0  0  0  0
   -6.0048    6.7340  -17.4137 C   0  0  0  0  0  0  0  0  0  0  0  0
   -3.2987    8.9136  -24.4157 C   0  0  0  0  0  0  0  0  0  0  0  0
   -2.4623    8.3970  -17.8482 C   0  0  0  0  0  0  0  0  0  0  0  0
   -1.4008    7.4781  -15.9179 C   0  0  0  0  0  0  0  0  0  0  0  0
   -4.6764    7.2579  -21.3526 N   0  0  0  0  0  0  0  0  0  0  0  0
   -1.5511    8.5155  -16.8316 C   0  0  0  0  0  0  0  0  0  0  0  0
   -3.5802    8.8042  -22.9371 C   0  0  0  0  0  0  0  0  0  0  0  0
   -6.7495    6.9774  -22.1125 O   0  0  0  0  0  0  0  0  0  0  0  0
   -3.0672    6.2283  -17.0470 C   0  0  0  0  0  0  0  0  0  0  0  0
   -3.2346    7.2305  -17.9574 C   0  0  0  0  0  0  0  0  0  0  0  0
   -2.5611    7.8173  -24.9545 N   0  0  0  0  0  4  0  0  0  0  0  0
   -3.2718    6.3800  -23.1990 C   0  0  0  0  0  0  0  0  0  0  0  0
   -2.1560    6.3381  -16.0247 C   0  0  0  0  0  0  0  0  0  0  0  0
   -3.2930    6.5636  -24.7289 C   0  0  0  0  0  0  0  0  0  0  0  0
   -5.9771    7.0304  -21.1267 C   0  0  0  0  0  0  0  0  0  0  0  0
  2  1  2  0
  1 10  1  0
  2  3  1  0
 15  2  1  0
  3  4  2  0
  3  6  1  0
  4 20  1  0
  5 10  1  1
  5 12  1  0
  5 17  1  0
 12  7  1  0
  7 16  1  0
  8 11  2  0
  8 15  1  0
 11  9  1  0
  9 18  2  0
 10 20  1  0
 20 13  2  0
 15 14  2  0
 14 18  1  0
 16 19  1  0
 17 19  1  0
M  CHG  1  16   1
M  END
$$$$
