
     RDKit          3D

 20 22  0  0  0  0  0  0  0  0999 V2000
   -4.2548    6.0225  -20.9675 N   0  0  0  0  0  0  0  0  0  0  0  0
   -4.3152    6.7174  -19.7918 C   0  0  0  0  0  0  0  0  0  0  0  0
   -5.3035    6.4242  -18.8938 C   0  0  0  0  0  0  0  0  0  0  0  0
   -6.2391    5.4164  -19.1941 C   0  0  0  0  0  0  0  0  0  0  0  0
   -5.0243    4.3828  -22.4882 C   0  0  1  0  0  0  0  0  0  0  0  0
   -5.4060    7.1207  -17.6115 C   0  0  0  0  0  0  0  0  0  0  0  0
   -5.3396    4.3530  -24.9232 C   0  0  0  0  0  0  0  0  0  0  0  0
   -3.2606    8.8446  -20.3618 C   0  0  0  0  0  0  0  0  0  0  0  0
   -1.5372    9.7763  -18.9986 C   0  0  0  0  0  0  0  0  0  0  0  0
   -5.1475    5.0621  -21.2514 N   0  0  0  0  0  0  0  0  0  0  0  0
   -2.3651    9.8516  -20.1132 C   0  0  0  0  0  0  0  0  0  0  0  0
   -5.3067    5.2494  -23.7096 C   0  0  0  0  0  0  0  0  0  0  0  0
   -6.9320    3.8448  -20.7150 O   0  0  0  0  0  0  0  0  0  0  0  0
   -2.5097    7.6995  -18.4032 C   0  0  0  0  0  0  0  0  0  0  0  0
   -3.3335    7.7477  -19.4896 C   0  0  0  0  0  0  0  0  0  0  0  0
   -4.2066    3.4945  -25.0486 N   0  0  0  0  0  4  0  0  0  0  0  0
   -3.7647    3.6141  -22.7155 C   0  0  0  0  0  0  0  0  0  0  0  0
   -1.6086    8.7042  -18.1461 C   0  0  0  0  0  0  0  0  0  0  0  0
   -4.0954    2.6372  -23.8607 C   0  0  0  0  0  0  0  0  0  0  0  0
   -6.1282    4.7512  -20.3932 C   0  0  0  0  0  0  0  0  0  0  0  0
  2  1  2  0
  1 10  1  0
  2  3  1  0
 15  2  1  0
  3  4  2  0
  3  6  1  0
  4 20  1  0
  5 10  1  1
  5 12  1  0
  5 17  1  0
 12  7  1  0
  7 16  1  0
  8 11  2  0
  8 15  1  0
 11  9  1  0
  9 18  2  0
 10 20  1  0
 20 13  2  0
 15 14  2  0
 14 18  1  0
 16 19  1  0
 17 19  1  0
M  CHG  1  16   1
M  END
$$$$
