
     RDKit          3D

 20 22  0  0  0  0  0  0  0  0999 V2000
   -3.8015    6.7304  -20.8306 N   0  0  0  0  0  0  0  0  0  0  0  0
   -4.0476    7.0911  -19.5352 C   0  0  0  0  0  0  0  0  0  0  0  0
   -3.0863    7.7678  -18.8371 C   0  0  0  0  0  0  0  0  0  0  0  0
   -1.8637    8.0795  -19.4612 C   0  0  0  0  0  0  0  0  0  0  0  0
   -2.4493    6.6242  -22.7680 C   0  0  1  0  0  0  0  0  0  0  0  0
   -3.3009    8.1967  -17.4551 C   0  0  0  0  0  0  0  0  0  0  0  0
   -1.9897    4.8428  -24.3943 C   0  0  0  0  0  0  0  0  0  0  0  0
   -5.6825    5.4194  -18.8320 C   0  0  0  0  0  0  0  0  0  0  0  0
   -7.6924    6.0493  -17.7093 C   0  0  0  0  0  0  0  0  0  0  0  0
   -2.6356    7.0289  -21.4234 N   0  0  0  0  0  0  0  0  0  0  0  0
   -6.8636    5.0642  -18.2348 C   0  0  0  0  0  0  0  0  0  0  0  0
   -2.3934    5.1142  -22.9657 C   0  0  0  0  0  0  0  0  0  0  0  0
   -0.6054    7.9399  -21.3744 O   0  0  0  0  0  0  0  0  0  0  0  0
   -6.1526    7.7192  -18.3832 C   0  0  0  0  0  0  0  0  0  0  0  0
   -5.3209    6.7733  -18.9074 C   0  0  0  0  0  0  0  0  0  0  0  0
   -2.7648    5.5444  -25.3655 N   0  0  0  0  0  4  0  0  0  0  0  0
   -3.3668    7.2164  -23.7862 C   0  0  0  0  0  0  0  0  0  0  0  0
   -7.3387    7.3725  -17.7829 C   0  0  0  0  0  0  0  0  0  0  0  0
   -2.6605    6.9919  -25.1374 C   0  0  0  0  0  0  0  0  0  0  0  0
   -1.6731    7.6902  -20.7669 C   0  0  0  0  0  0  0  0  0  0  0  0
  2  1  2  0
  1 10  1  0
  2  3  1  0
 15  2  1  0
  3  4  2  0
  3  6  1  0
  4 20  1  0
  5 10  1  1
  5 12  1  0
  5 17  1  0
 12  7  1  0
  7 16  1  0
  8 11  2  0
  8 15  1  0
 11  9  1  0
  9 18  2  0
 10 20  1  0
 20 13  2  0
 15 14  2  0
 14 18  1  0
 16 19  1  0
 17 19  1  0
M  CHG  1  16   1
M  END
$$$$
