
     RDKit          3D

 20 22  0  0  0  0  0  0  0  0999 V2000
   -3.8500    6.2654  -20.0342 N   0  0  0  0  0  0  0  0  0  0  0  0
   -3.7354    6.9149  -18.8368 C   0  0  0  0  0  0  0  0  0  0  0  0
   -2.8944    7.9884  -18.7381 C   0  0  0  0  0  0  0  0  0  0  0  0
   -2.1630    8.4046  -19.8664 C   0  0  0  0  0  0  0  0  0  0  0  0
   -3.3204    5.9446  -22.3167 C   0  0  1  0  0  0  0  0  0  0  0  0
   -2.7460    8.7341  -17.4883 C   0  0  0  0  0  0  0  0  0  0  0  0
   -2.8854    3.9334  -23.6566 C   0  0  0  0  0  0  0  0  0  0  0  0
   -3.7940    6.0087  -16.5702 C   0  0  0  0  0  0  0  0  0  0  0  0
   -5.8611    5.6659  -15.4272 C   0  0  0  0  0  0  0  0  0  0  0  0
   -3.1520    6.6642  -21.1083 N   0  0  0  0  0  0  0  0  0  0  0  0
   -4.4721    5.6041  -15.4503 C   0  0  0  0  0  0  0  0  0  0  0  0
   -2.8334    4.5016  -22.2595 C   0  0  0  0  0  0  0  0  0  0  0  0
   -1.6944    8.0361  -22.0817 O   0  0  0  0  0  0  0  0  0  0  0  0
   -5.8698    6.5317  -17.6326 C   0  0  0  0  0  0  0  0  0  0  0  0
   -4.5074    6.4812  -17.6824 C   0  0  0  0  0  0  0  0  0  0  0  0
   -4.1369    4.1160  -24.3173 N   0  0  0  0  0  4  0  0  0  0  0  0
   -4.6763    5.9781  -22.9409 C   0  0  0  0  0  0  0  0  0  0  0  0
   -6.5582    6.1280  -16.5143 C   0  0  0  0  0  0  0  0  0  0  0  0
   -4.4521    5.5483  -24.4038 C   0  0  0  0  0  0  0  0  0  0  0  0
   -2.3193    7.7117  -21.0446 C   0  0  0  0  0  0  0  0  0  0  0  0
  2  1  2  0
  1 10  1  0
  2  3  1  0
 15  2  1  0
  3  4  2  0
  3  6  1  0
  4 20  1  0
  5 10  1  1
  5 12  1  0
  5 17  1  0
 12  7  1  0
  7 16  1  0
  8 11  2  0
  8 15  1  0
 11  9  1  0
  9 18  2  0
 10 20  1  0
 20 13  2  0
 15 14  2  0
 14 18  1  0
 16 19  1  0
 17 19  1  0
M  CHG  1  16   1
M  END
$$$$
