
     RDKit          3D

 20 22  0  0  0  0  0  0  0  0999 V2000
   -3.8514    6.6671  -20.7050 N   0  0  0  0  0  0  0  0  0  0  0  0
   -4.0352    7.1940  -19.4570 C   0  0  0  0  0  0  0  0  0  0  0  0
   -3.0042    7.8618  -18.8566 C   0  0  0  0  0  0  0  0  0  0  0  0
   -1.7755    7.9941  -19.5304 C   0  0  0  0  0  0  0  0  0  0  0  0
   -2.5603    6.2240  -22.6362 C   0  0  1  0  0  0  0  0  0  0  0  0
   -3.1488    8.4634  -17.5310 C   0  0  0  0  0  0  0  0  0  0  0  0
   -2.3225    4.2319  -24.0520 C   0  0  0  0  0  0  0  0  0  0  0  0
   -5.3142    6.4460  -17.5162 C   0  0  0  0  0  0  0  0  0  0  0  0
   -7.6733    6.7835  -17.3835 C   0  0  0  0  0  0  0  0  0  0  0  0
   -2.6795    6.7948  -21.3454 N   0  0  0  0  0  0  0  0  0  0  0  0
   -6.4903    6.3106  -16.8262 C   0  0  0  0  0  0  0  0  0  0  0  0
   -2.6708    4.7043  -22.6617 C   0  0  0  0  0  0  0  0  0  0  0  0
   -0.5800    7.5288  -21.4323 O   0  0  0  0  0  0  0  0  0  0  0  0
   -6.4897    7.5155  -19.3011 C   0  0  0  0  0  0  0  0  0  0  0  0
   -5.3149    7.0602  -18.7780 C   0  0  0  0  0  0  0  0  0  0  0  0
   -3.0333    4.9003  -25.0933 N   0  0  0  0  0  4  0  0  0  0  0  0
   -3.4253    6.7947  -23.7111 C   0  0  0  0  0  0  0  0  0  0  0  0
   -7.6737    7.3840  -18.6167 C   0  0  0  0  0  0  0  0  0  0  0  0
   -2.7697    6.3443  -25.0311 C   0  0  0  0  0  0  0  0  0  0  0  0
   -1.6497    7.4426  -20.7845 C   0  0  0  0  0  0  0  0  0  0  0  0
  2  1  2  0
  1 10  1  0
  2  3  1  0
 15  2  1  0
  3  4  2  0
  3  6  1  0
  4 20  1  0
  5 10  1  1
  5 12  1  0
  5 17  1  0
 12  7  1  0
  7 16  1  0
  8 11  2  0
  8 15  1  0
 11  9  1  0
  9 18  2  0
 10 20  1  0
 20 13  2  0
 15 14  2  0
 14 18  1  0
 16 19  1  0
 17 19  1  0
M  CHG  1  16   1
M  END
$$$$
