
     RDKit          3D

 20 22  0  0  0  0  0  0  0  0999 V2000
   -3.7836    7.5008  -21.4028 N   0  0  0  0  0  0  0  0  0  0  0  0
   -4.1187    7.5029  -20.0775 C   0  0  0  0  0  0  0  0  0  0  0  0
   -3.8752    8.6213  -19.3296 C   0  0  0  0  0  0  0  0  0  0  0  0
   -3.2850    9.7470  -19.9343 C   0  0  0  0  0  0  0  0  0  0  0  0
   -2.9007    8.5025  -23.3547 C   0  0  1  0  0  0  0  0  0  0  0  0
   -4.2304    8.6884  -17.9121 C   0  0  0  0  0  0  0  0  0  0  0  0
   -1.4156    7.7031  -25.1393 C   0  0  0  0  0  0  0  0  0  0  0  0
   -5.8986    5.8314  -20.0787 C   0  0  0  0  0  0  0  0  0  0  0  0
   -5.9825    4.1112  -18.4262 C   0  0  0  0  0  0  0  0  0  0  0  0
   -3.2214    8.5751  -21.9770 N   0  0  0  0  0  0  0  0  0  0  0  0
   -6.5133    4.7238  -19.5560 C   0  0  0  0  0  0  0  0  0  0  0  0
   -1.7823    7.5220  -23.6867 C   0  0  0  0  0  0  0  0  0  0  0  0
   -2.4422   10.6570  -21.8643 O   0  0  0  0  0  0  0  0  0  0  0  0
   -4.2402    5.7155  -18.3619 C   0  0  0  0  0  0  0  0  0  0  0  0
   -4.7399    6.3364  -19.4691 C   0  0  0  0  0  0  0  0  0  0  0  0
   -2.5272    7.6666  -26.0333 N   0  0  0  0  0  4  0  0  0  0  0  0
   -4.0341    8.2899  -24.3031 C   0  0  0  0  0  0  0  0  0  0  0  0
   -4.8498    4.6048  -17.8307 C   0  0  0  0  0  0  0  0  0  0  0  0
   -3.4883    8.7197  -25.6788 C   0  0  0  0  0  0  0  0  0  0  0  0
   -2.9692    9.6860  -21.2720 C   0  0  0  0  0  0  0  0  0  0  0  0
  2  1  2  0
  1 10  1  0
  2  3  1  0
 15  2  1  0
  3  4  2  0
  3  6  1  0
  4 20  1  0
  5 10  1  1
  5 12  1  0
  5 17  1  0
 12  7  1  0
  7 16  1  0
  8 11  2  0
  8 15  1  0
 11  9  1  0
  9 18  2  0
 10 20  1  0
 20 13  2  0
 15 14  2  0
 14 18  1  0
 16 19  1  0
 17 19  1  0
M  CHG  1  16   1
M  END
$$$$
