
     RDKit          3D

 20 22  0  0  0  0  0  0  0  0999 V2000
   -4.4519    6.6299  -20.1930 N   0  0  0  0  0  0  0  0  0  0  0  0
   -4.4184    7.0193  -18.8830 C   0  0  0  0  0  0  0  0  0  0  0  0
   -3.2443    7.4777  -18.3532 C   0  0  0  0  0  0  0  0  0  0  0  0
   -2.0940    7.5397  -19.1621 C   0  0  0  0  0  0  0  0  0  0  0  0
   -3.4622    6.2707  -22.3106 C   0  0  1  0  0  0  0  0  0  0  0  0
   -3.1532    7.9264  -16.9639 C   0  0  0  0  0  0  0  0  0  0  0  0
   -3.4984    4.4536  -23.9618 C   0  0  0  0  0  0  0  0  0  0  0  0
   -5.5710    6.1690  -16.9054 C   0  0  0  0  0  0  0  0  0  0  0  0
   -7.8187    6.8038  -16.4141 C   0  0  0  0  0  0  0  0  0  0  0  0
   -3.3543    6.6902  -20.9620 N   0  0  0  0  0  0  0  0  0  0  0  0
   -6.6684    6.0938  -16.0883 C   0  0  0  0  0  0  0  0  0  0  0  0
   -3.6015    4.7635  -22.4885 C   0  0  0  0  0  0  0  0  0  0  0  0
   -1.1981    7.1666  -21.2409 O   0  0  0  0  0  0  0  0  0  0  0  0
   -6.7598    7.6481  -18.3581 C   0  0  0  0  0  0  0  0  0  0  0  0
   -5.6185    6.9616  -18.0625 C   0  0  0  0  0  0  0  0  0  0  0  0
   -4.3616    5.2350  -24.7868 N   0  0  0  0  0  4  0  0  0  0  0  0
   -4.4847    6.9585  -23.1536 C   0  0  0  0  0  0  0  0  0  0  0  0
   -7.8649    7.5785  -17.5449 C   0  0  0  0  0  0  0  0  0  0  0  0
   -4.0667    6.6630  -24.6072 C   0  0  0  0  0  0  0  0  0  0  0  0
   -2.1885    7.1338  -20.4732 C   0  0  0  0  0  0  0  0  0  0  0  0
  2  1  2  0
  1 10  1  0
  2  3  1  0
 15  2  1  0
  3  4  2  0
  3  6  1  0
  4 20  1  0
  5 10  1  1
  5 12  1  0
  5 17  1  0
 12  7  1  0
  7 16  1  0
  8 11  2  0
  8 15  1  0
 11  9  1  0
  9 18  2  0
 10 20  1  0
 20 13  2  0
 15 14  2  0
 14 18  1  0
 16 19  1  0
 17 19  1  0
M  CHG  1  16   1
M  END
$$$$
