
     RDKit          3D

 20 22  0  0  0  0  0  0  0  0999 V2000
   -3.5153    7.5242  -20.4977 N   0  0  0  0  0  0  0  0  0  0  0  0
   -3.8581    7.5284  -19.1743 C   0  0  0  0  0  0  0  0  0  0  0  0
   -5.1601    7.7542  -18.8233 C   0  0  0  0  0  0  0  0  0  0  0  0
   -6.1216    7.9787  -19.8264 C   0  0  0  0  0  0  0  0  0  0  0  0
   -4.0073    7.7194  -22.8026 C   0  0  1  0  0  0  0  0  0  0  0  0
   -5.5891    7.7507  -17.4248 C   0  0  0  0  0  0  0  0  0  0  0  0
   -3.0138    8.8862  -24.7213 C   0  0  0  0  0  0  0  0  0  0  0  0
   -2.0664    6.1295  -18.2826 C   0  0  0  0  0  0  0  0  0  0  0  0
   -0.9025    6.7312  -16.2876 C   0  0  0  0  0  0  0  0  0  0  0  0
   -4.4336    7.7382  -21.4520 N   0  0  0  0  0  0  0  0  0  0  0  0
   -1.0958    5.8597  -17.3537 C   0  0  0  0  0  0  0  0  0  0  0  0
   -3.2179    8.9518  -23.2275 C   0  0  0  0  0  0  0  0  0  0  0  0
   -6.5284    8.1564  -22.0772 O   0  0  0  0  0  0  0  0  0  0  0  0
   -2.6445    8.1203  -17.0936 C   0  0  0  0  0  0  0  0  0  0  0  0
   -2.8556    7.2822  -18.1491 C   0  0  0  0  0  0  0  0  0  0  0  0
   -2.4819    7.6463  -25.1861 N   0  0  0  0  0  4  0  0  0  0  0  0
   -3.2905    6.4956  -23.2691 C   0  0  0  0  0  0  0  0  0  0  0  0
   -1.6739    7.8579  -16.1574 C   0  0  0  0  0  0  0  0  0  0  0  0
   -3.3773    6.5449  -24.8070 C   0  0  0  0  0  0  0  0  0  0  0  0
   -5.7172    7.9630  -21.1413 C   0  0  0  0  0  0  0  0  0  0  0  0
  2  1  2  0
  1 10  1  0
  2  3  1  0
 15  2  1  0
  3  4  2  0
  3  6  1  0
  4 20  1  0
  5 10  1  1
  5 12  1  0
  5 17  1  0
 12  7  1  0
  7 16  1  0
  8 11  2  0
  8 15  1  0
 11  9  1  0
  9 18  2  0
 10 20  1  0
 20 13  2  0
 15 14  2  0
 14 18  1  0
 16 19  1  0
 17 19  1  0
M  CHG  1  16   1
M  END
$$$$
