
     RDKit          3D

 20 22  0  0  0  0  0  0  0  0999 V2000
   -3.2265    7.2570  -21.1444 N   0  0  0  0  0  0  0  0  0  0  0  0
   -3.8296    7.3344  -19.9201 C   0  0  0  0  0  0  0  0  0  0  0  0
   -3.0555    7.4880  -18.8036 C   0  0  0  0  0  0  0  0  0  0  0  0
   -1.6559    7.5627  -18.9331 C   0  0  0  0  0  0  0  0  0  0  0  0
   -1.3356    7.2417  -22.5648 C   0  0  1  0  0  0  0  0  0  0  0  0
   -3.6461    7.5965  -17.4697 C   0  0  0  0  0  0  0  0  0  0  0  0
   -0.8480    5.9107  -24.5699 C   0  0  0  0  0  0  0  0  0  0  0  0
   -5.9061    6.0865  -20.2249 C   0  0  0  0  0  0  0  0  0  0  0  0
   -8.0127    7.0162  -19.5964 C   0  0  0  0  0  0  0  0  0  0  0  0
   -1.8922    7.3287  -21.2652 N   0  0  0  0  0  0  0  0  0  0  0  0
   -7.2671    5.9657  -20.1200 C   0  0  0  0  0  0  0  0  0  0  0  0
   -1.6668    5.9501  -23.3028 C   0  0  0  0  0  0  0  0  0  0  0  0
    0.1339    7.5388  -20.3681 O   0  0  0  0  0  0  0  0  0  0  0  0
   -6.0339    8.2833  -19.2927 C   0  0  0  0  0  0  0  0  0  0  0  0
   -5.2783    7.2685  -19.8030 C   0  0  0  0  0  0  0  0  0  0  0  0
   -0.9396    7.0930  -25.3638 N   0  0  0  0  0  4  0  0  0  0  0  0
   -1.5665    8.3994  -23.4789 C   0  0  0  0  0  0  0  0  0  0  0  0
   -7.3988    8.1713  -19.1839 C   0  0  0  0  0  0  0  0  0  0  0  0
   -0.4992    8.2558  -24.5812 C   0  0  0  0  0  0  0  0  0  0  0  0
   -1.1056    7.4785  -20.1912 C   0  0  0  0  0  0  0  0  0  0  0  0
  2  1  2  0
  1 10  1  0
  2  3  1  0
 15  2  1  0
  3  4  2  0
  3  6  1  0
  4 20  1  0
  5 10  1  1
  5 12  1  0
  5 17  1  0
 12  7  1  0
  7 16  1  0
  8 11  2  0
  8 15  1  0
 11  9  1  0
  9 18  2  0
 10 20  1  0
 20 13  2  0
 15 14  2  0
 14 18  1  0
 16 19  1  0
 17 19  1  0
M  CHG  1  16   1
M  END
$$$$
