
     RDKit          3D

 23 24  0  0  0  0  0  0  0  0999 V2000
   -6.6680  -33.3666  -15.2242 C   0  0  1  0  0  0  0  0  0  0  0  0
   -7.0563  -34.1427  -13.9951 C   0  0  1  0  0  0  0  0  0  0  0  0
   -6.5502  -35.5546  -13.9846 C   0  0  2  0  0  0  0  0  0  0  0  0
   -6.6808  -36.0888  -15.3829 C   0  0  1  0  0  0  0  0  0  0  0  0
   -5.7978  -35.2791  -16.2548 C   0  0  1  0  0  0  0  0  0  0  0  0
   -6.2563  -35.4954  -17.7038 C   0  0  0  0  0  0  0  0  0  0  0  0
   -6.1915  -32.1698  -14.8151 O   0  0  0  0  0  0  0  0  0  0  0  0
   -6.5336  -33.5614  -12.8203 O   0  0  0  0  0  0  0  0  0  0  0  0
   -7.3473  -36.3065  -13.1313 O   0  0  0  0  0  0  0  0  0  0  0  0
   -6.2035  -37.4065  -15.3674 O   0  0  0  0  0  0  0  0  0  0  0  0
   -5.7248  -33.9612  -16.0175 O   0  0  0  0  0  0  0  0  0  0  0  0
   -5.4233  -34.8443  -18.5945 O   0  0  0  0  0  0  0  0  0  0  0  0
   -6.4881  -30.6949  -16.6030 C   0  0  0  0  0  0  0  0  0  0  0  0
   -6.7310  -31.0089  -15.1178 C   0  0  1  0  0  0  0  0  0  0  0  0
   -8.0960  -30.6468  -14.7815 C   0  0  2  0  0  0  0  0  0  0  0  0
   -8.0360  -29.1209  -14.6889 C   0  0  1  0  0  0  0  0  0  0  0  0
   -6.5737  -28.8126  -14.6865 C   0  0  1  0  0  0  0  0  0  0  0  0
   -6.1740  -27.8735  -13.5650 C   0  0  0  0  0  0  0  0  0  0  0  0
   -6.1741  -31.8563  -17.2840 O   0  0  0  0  0  0  0  0  0  0  0  0
   -5.9531  -30.0120  -14.4599 O   0  0  0  0  0  0  0  0  0  0  0  0
   -8.6234  -31.0974  -13.6071 O   0  0  0  0  0  0  0  0  0  0  0  0
   -8.6232  -28.5140  -15.7878 O   0  0  0  0  0  0  0  0  0  0  0  0
   -4.8881  -28.0775  -13.1213 O   0  0  0  0  0  0  0  0  0  0  0  0
  1  2  1  0
  1  7  1  1
  1 11  1  0
  2  3  1  0
  2  8  1  1
  3  4  1  0
  3  9  1  1
  5  4  1  0
  4 10  1  1
  5  6  1  6
 11  5  1  0
  6 12  1  0
 14  7  1  0
 14 13  1  6
 13 19  1  0
 14 15  1  0
 20 14  1  0
 16 15  1  0
 15 21  1  1
 17 16  1  0
 16 22  1  6
 17 18  1  1
 17 20  1  0
 23 18  1  0
M  END
$$$$
