
     RDKit          3D

 23 24  0  0  0  0  0  0  0  0999 V2000
   -6.6394  -32.5243  -14.5153 C   0  0  1  0  0  0  0  0  0  0  0  0
   -6.4367  -31.7703  -13.2292 C   0  0  1  0  0  0  0  0  0  0  0  0
   -7.1384  -30.4453  -13.1863 C   0  0  2  0  0  0  0  0  0  0  0  0
   -7.0051  -29.8224  -14.5471 C   0  0  1  0  0  0  0  0  0  0  0  0
   -7.7124  -30.6981  -15.5106 C   0  0  1  0  0  0  0  0  0  0  0  0
   -7.2069  -30.3410  -16.9154 C   0  0  0  0  0  0  0  0  0  0  0  0
   -6.9633  -33.7964  -14.1935 O   0  0  0  0  0  0  0  0  0  0  0  0
   -6.9378  -32.4821  -12.1187 O   0  0  0  0  0  0  0  0  0  0  0  0
   -6.5068  -29.6376  -12.2495 O   0  0  0  0  0  0  0  0  0  0  0  0
   -7.6652  -28.5868  -14.5016 O   0  0  0  0  0  0  0  0  0  0  0  0
   -7.6105  -32.0243  -15.3396 O   0  0  0  0  0  0  0  0  0  0  0  0
   -6.3697  -29.2413  -16.8812 O   0  0  0  0  0  0  0  0  0  0  0  0
   -7.8344  -35.9426  -14.5021 C   0  0  0  0  0  0  0  0  0  0  0  0
   -6.9470  -34.8065  -15.0360 C   0  0  1  0  0  0  0  0  0  0  0  0
   -7.1778  -34.6650  -16.4623 C   0  0  2  0  0  0  0  0  0  0  0  0
   -6.4163  -35.8520  -17.0551 C   0  0  1  0  0  0  0  0  0  0  0  0
   -5.5888  -36.3591  -15.9187 C   0  0  1  0  0  0  0  0  0  0  0  0
   -4.1322  -36.5521  -16.2940 C   0  0  0  0  0  0  0  0  0  0  0  0
   -8.6955  -35.4530  -13.5377 O   0  0  0  0  0  0  0  0  0  0  0  0
   -5.6419  -35.3756  -14.9675 O   0  0  0  0  0  0  0  0  0  0  0  0
   -6.7225  -33.5440  -17.0920 O   0  0  0  0  0  0  0  0  0  0  0  0
   -7.2732  -36.8578  -17.4731 O   0  0  0  0  0  0  0  0  0  0  0  0
   -3.2914  -36.5722  -15.2056 O   0  0  0  0  0  0  0  0  0  0  0  0
  1  2  1  0
  1  7  1  1
  1 11  1  0
  2  3  1  0
  2  8  1  1
  3  4  1  0
  3  9  1  1
  5  4  1  0
  4 10  1  1
  5  6  1  6
 11  5  1  0
  6 12  1  0
 14  7  1  0
 14 13  1  1
 13 19  1  0
 14 15  1  0
 20 14  1  0
 16 15  1  0
 15 21  1  6
 17 16  1  0
 16 22  1  1
 17 18  1  6
 17 20  1  0
 23 18  1  0
M  END
$$$$
