
     RDKit          3D

 23 24  0  0  0  0  0  0  0  0999 V2000
   -6.6567  -33.6623  -15.6992 C   0  0  1  0  0  0  0  0  0  0  0  0
   -7.3372  -34.4553  -16.7816 C   0  0  1  0  0  0  0  0  0  0  0  0
   -7.2742  -35.9397  -16.5764 C   0  0  2  0  0  0  0  0  0  0  0  0
   -5.9072  -36.2615  -16.0422 C   0  0  1  0  0  0  0  0  0  0  0  0
   -5.7752  -35.5984  -14.7238 C   0  0  1  0  0  0  0  0  0  0  0  0
   -4.2783  -35.5280  -14.3908 C   0  0  0  0  0  0  0  0  0  0  0  0
   -7.5005  -32.6738  -15.3283 O   0  0  0  0  0  0  0  0  0  0  0  0
   -8.7143  -34.1586  -16.8629 O   0  0  0  0  0  0  0  0  0  0  0  0
   -7.4448  -36.5662  -17.8041 O   0  0  0  0  0  0  0  0  0  0  0  0
   -5.8557  -37.6489  -15.8494 O   0  0  0  0  0  0  0  0  0  0  0  0
   -6.3061  -34.3748  -14.5847 O   0  0  0  0  0  0  0  0  0  0  0  0
   -3.7829  -36.7725  -14.0485 O   0  0  0  0  0  0  0  0  0  0  0  0
   -8.0544  -30.4455  -14.8949 C   0  0  0  0  0  0  0  0  0  0  0  0
   -7.1680  -31.6569  -14.5630 C   0  0  1  0  0  0  0  0  0  0  0  0
   -7.0267  -31.7507  -13.1213 C   0  0  2  0  0  0  0  0  0  0  0  0
   -6.0281  -30.6375  -12.7986 C   0  0  1  0  0  0  0  0  0  0  0  0
   -5.4859  -30.2358  -14.1321 C   0  0  1  0  0  0  0  0  0  0  0  0
   -3.9706  -30.1856  -14.1583 C   0  0  0  0  0  0  0  0  0  0  0  0
   -8.4291  -30.4873  -16.2250 O   0  0  0  0  0  0  0  0  0  0  0  0
   -5.8799  -31.2244  -14.9937 O   0  0  0  0  0  0  0  0  0  0  0  0
   -6.5285  -32.9016  -12.5849 O   0  0  0  0  0  0  0  0  0  0  0  0
   -6.6464  -29.5432  -12.2148 O   0  0  0  0  0  0  0  0  0  0  0  0
   -3.4381  -30.5537  -15.3720 O   0  0  0  0  0  0  0  0  0  0  0  0
  1  2  1  0
  1  7  1  1
  1 11  1  0
  2  3  1  0
  2  8  1  1
  3  4  1  0
  3  9  1  6
  5  4  1  0
  4 10  1  1
  5  6  1  6
 11  5  1  0
  6 12  1  0
 14  7  1  0
 14 13  1  1
 13 19  1  0
 14 15  1  0
 20 14  1  0
 16 15  1  0
 15 21  1  6
 17 16  1  0
 16 22  1  6
 17 18  1  1
 17 20  1  0
 23 18  1  0
M  END
$$$$
