
     RDKit          3D

 23 24  0  0  0  0  0  0  0  0999 V2000
   -6.4032  -33.9379  -15.4137 C   0  0  1  0  0  0  0  0  0  0  0  0
   -7.3203  -34.7252  -16.3096 C   0  0  1  0  0  0  0  0  0  0  0  0
   -6.8409  -36.1175  -16.5949 C   0  0  2  0  0  0  0  0  0  0  0  0
   -5.3514  -36.0505  -16.7797 C   0  0  1  0  0  0  0  0  0  0  0  0
   -4.7616  -35.6038  -15.4959 C   0  0  1  0  0  0  0  0  0  0  0  0
   -3.3432  -35.0966  -15.7918 C   0  0  0  0  0  0  0  0  0  0  0  0
   -7.1660  -33.3585  -14.4601 O   0  0  0  0  0  0  0  0  0  0  0  0
   -8.5986  -34.8922  -15.7360 O   0  0  0  0  0  0  0  0  0  0  0  0
   -7.4288  -36.5576  -17.7737 O   0  0  0  0  0  0  0  0  0  0  0  0
   -4.9092  -37.3543  -17.0425 O   0  0  0  0  0  0  0  0  0  0  0  0
   -5.4192  -34.6646  -14.8003 O   0  0  0  0  0  0  0  0  0  0  0  0
   -2.6048  -34.9699  -14.6299 O   0  0  0  0  0  0  0  0  0  0  0  0
   -8.0374  -31.8302  -12.9223 C   0  0  0  0  0  0  0  0  0  0  0  0
   -7.0180  -32.1224  -14.0353 C   0  0  1  0  0  0  0  0  0  0  0  0
   -5.7378  -31.5522  -13.6569 C   0  0  2  0  0  0  0  0  0  0  0  0
   -5.9365  -30.0568  -13.9115 C   0  0  1  0  0  0  0  0  0  0  0  0
   -7.2087  -29.9855  -14.6924 C   0  0  1  0  0  0  0  0  0  0  0  0
   -7.0824  -29.1379  -15.9434 C   0  0  0  0  0  0  0  0  0  0  0  0
   -8.6564  -33.0032  -12.5318 O   0  0  0  0  0  0  0  0  0  0  0  0
   -7.4598  -31.2714  -15.0901 O   0  0  0  0  0  0  0  0  0  0  0  0
   -4.6227  -31.9295  -14.3460 O   0  0  0  0  0  0  0  0  0  0  0  0
   -6.0919  -29.3488  -12.7303 O   0  0  0  0  0  0  0  0  0  0  0  0
   -8.0936  -29.3574  -16.8498 O   0  0  0  0  0  0  0  0  0  0  0  0
  1  2  1  0
  1  7  1  1
  1 11  1  0
  2  3  1  0
  2  8  1  1
  3  4  1  0
  3  9  1  6
  5  4  1  0
  4 10  1  1
  5  6  1  6
 11  5  1  0
  6 12  1  0
 14  7  1  0
 14 13  1  1
 13 19  1  0
 14 15  1  0
 20 14  1  0
 16 15  1  0
 15 21  1  6
 17 16  1  0
 16 22  1  1
 17 18  1  6
 17 20  1  0
 23 18  1  0
M  END
$$$$
