
     RDKit          3D

 23 24  0  0  0  0  0  0  0  0999 V2000
   -7.2365  -33.7789  -15.5274 C   0  0  1  0  0  0  0  0  0  0  0  0
   -7.5672  -35.1150  -14.9198 C   0  0  1  0  0  0  0  0  0  0  0  0
   -6.4601  -36.1211  -15.0282 C   0  0  2  0  0  0  0  0  0  0  0  0
   -5.8333  -35.9546  -16.3835 C   0  0  1  0  0  0  0  0  0  0  0  0
   -5.2422  -34.5970  -16.4386 C   0  0  1  0  0  0  0  0  0  0  0  0
   -5.0197  -34.2506  -17.9175 C   0  0  0  0  0  0  0  0  0  0  0  0
   -7.5895  -32.8280  -14.6341 O   0  0  0  0  0  0  0  0  0  0  0  0
   -7.8299  -35.0124  -13.5372 O   0  0  0  0  0  0  0  0  0  0  0  0
   -7.0052  -37.3947  -14.9295 O   0  0  0  0  0  0  0  0  0  0  0  0
   -4.7979  -36.8946  -16.4774 O   0  0  0  0  0  0  0  0  0  0  0  0
   -5.9214  -33.5966  -15.8586 O   0  0  0  0  0  0  0  0  0  0  0  0
   -4.1431  -33.1906  -18.0566 O   0  0  0  0  0  0  0  0  0  0  0  0
   -7.9148  -30.9682  -16.0109 C   0  0  0  0  0  0  0  0  0  0  0  0
   -7.2798  -31.5539  -14.7392 C   0  0  1  0  0  0  0  0  0  0  0  0
   -7.4360  -30.5986  -13.6573 C   0  0  2  0  0  0  0  0  0  0  0  0
   -6.3799  -29.5389  -13.9767 C   0  0  1  0  0  0  0  0  0  0  0  0
   -5.5397  -30.1696  -15.0395 C   0  0  1  0  0  0  0  0  0  0  0  0
   -4.0553  -30.0859  -14.7406 C   0  0  0  0  0  0  0  0  0  0  0  0
   -9.0933  -31.6323  -16.2967 O   0  0  0  0  0  0  0  0  0  0  0  0
   -5.8865  -31.4942  -15.0340 O   0  0  0  0  0  0  0  0  0  0  0  0
   -7.2099  -31.0145  -12.3780 O   0  0  0  0  0  0  0  0  0  0  0  0
   -6.9484  -28.3795  -14.4799 O   0  0  0  0  0  0  0  0  0  0  0  0
   -3.3228  -31.0729  -15.3580 O   0  0  0  0  0  0  0  0  0  0  0  0
  1  2  1  0
  1  7  1  1
  1 11  1  0
  2  3  1  0
  2  8  1  1
  3  4  1  0
  3  9  1  6
  5  4  1  0
  4 10  1  1
  5  6  1  6
 11  5  1  0
  6 12  1  0
 14  7  1  0
 14 13  1  6
 13 19  1  0
 14 15  1  0
 20 14  1  0
 16 15  1  0
 15 21  1  1
 17 16  1  0
 16 22  1  6
 17 18  1  1
 17 20  1  0
 23 18  1  0
M  END
$$$$
