
     RDKit          3D

 23 24  0  0  0  0  0  0  0  0999 V2000
   -6.5395  -33.4380  -14.9583 C   0  0  1  0  0  0  0  0  0  0  0  0
   -6.7133  -32.3082  -13.9801 C   0  0  1  0  0  0  0  0  0  0  0  0
   -7.3697  -31.0939  -14.5668 C   0  0  2  0  0  0  0  0  0  0  0  0
   -6.8258  -30.9165  -15.9561 C   0  0  1  0  0  0  0  0  0  0  0  0
   -7.2320  -32.1002  -16.7494 C   0  0  1  0  0  0  0  0  0  0  0  0
   -6.3249  -32.1597  -17.9864 C   0  0  0  0  0  0  0  0  0  0  0  0
   -6.9695  -34.5680  -14.3543 O   0  0  0  0  0  0  0  0  0  0  0  0
   -7.5358  -32.6760  -12.8941 O   0  0  0  0  0  0  0  0  0  0  0  0
   -7.0292  -29.9888  -13.7976 O   0  0  0  0  0  0  0  0  0  0  0  0
   -7.4451  -29.7828  -16.5000 O   0  0  0  0  0  0  0  0  0  0  0  0
   -7.2117  -33.2955  -16.1417 O   0  0  0  0  0  0  0  0  0  0  0  0
   -5.0214  -32.4601  -17.6370 O   0  0  0  0  0  0  0  0  0  0  0  0
   -7.5432  -36.7932  -13.9304 C   0  0  0  0  0  0  0  0  0  0  0  0
   -6.9963  -35.7540  -14.9227 C   0  0  1  0  0  0  0  0  0  0  0  0
   -7.5785  -36.0045  -16.2288 C   0  0  2  0  0  0  0  0  0  0  0  0
   -6.8040  -37.2274  -16.7237 C   0  0  1  0  0  0  0  0  0  0  0  0
   -5.6616  -37.3474  -15.7677 C   0  0  1  0  0  0  0  0  0  0  0  0
   -4.3241  -37.4935  -16.4672 C   0  0  0  0  0  0  0  0  0  0  0  0
   -8.6278  -36.2698  -13.2515 O   0  0  0  0  0  0  0  0  0  0  0  0
   -5.6400  -36.1626  -15.0817 O   0  0  0  0  0  0  0  0  0  0  0  0
   -7.4663  -35.0447  -17.1914 O   0  0  0  0  0  0  0  0  0  0  0  0
   -7.5680  -38.3820  -16.6607 O   0  0  0  0  0  0  0  0  0  0  0  0
   -3.2692  -37.0218  -15.7211 O   0  0  0  0  0  0  0  0  0  0  0  0
  1  2  1  0
  1  7  1  1
  1 11  1  0
  2  3  1  0
  2  8  1  1
  3  4  1  0
  3  9  1  1
  5  4  1  0
  4 10  1  6
  5  6  1  6
 11  5  1  0
  6 12  1  0
 14  7  1  0
 14 13  1  1
 13 19  1  0
 14 15  1  0
 20 14  1  0
 16 15  1  0
 15 21  1  6
 17 16  1  0
 16 22  1  1
 17 18  1  6
 17 20  1  0
 23 18  1  0
M  END
$$$$
