
     RDKit          3D

 23 24  0  0  0  0  0  0  0  0999 V2000
   -6.8024  -33.4856  -15.6032 C   0  0  1  0  0  0  0  0  0  0  0  0
   -7.2259  -34.6921  -14.8104 C   0  0  1  0  0  0  0  0  0  0  0  0
   -6.5561  -35.9642  -15.2380 C   0  0  2  0  0  0  0  0  0  0  0  0
   -6.4666  -35.9423  -16.7377 C   0  0  1  0  0  0  0  0  0  0  0  0
   -5.5983  -34.8031  -17.1169 C   0  0  1  0  0  0  0  0  0  0  0  0
   -5.8655  -34.4921  -18.5963 C   0  0  0  0  0  0  0  0  0  0  0  0
   -6.5228  -32.4988  -14.7229 O   0  0  0  0  0  0  0  0  0  0  0  0
   -6.9098  -34.5582  -13.4417 O   0  0  0  0  0  0  0  0  0  0  0  0
   -7.3445  -37.0368  -14.8423 O   0  0  0  0  0  0  0  0  0  0  0  0
   -5.8372  -37.1314  -17.1308 O   0  0  0  0  0  0  0  0  0  0  0  0
   -5.7126  -33.6691  -16.4102 O   0  0  0  0  0  0  0  0  0  0  0  0
   -4.8745  -33.6859  -19.1248 O   0  0  0  0  0  0  0  0  0  0  0  0
   -7.2118  -30.8723  -16.2525 C   0  0  0  0  0  0  0  0  0  0  0  0
   -7.0193  -31.2822  -14.7834 C   0  0  1  0  0  0  0  0  0  0  0  0
   -8.1778  -30.8499  -14.0227 C   0  0  2  0  0  0  0  0  0  0  0  0
   -7.9519  -29.3441  -13.8747 C   0  0  1  0  0  0  0  0  0  0  0  0
   -6.5363  -29.1429  -14.3093 C   0  0  1  0  0  0  0  0  0  0  0  0
   -5.7294  -28.3247  -13.3198 C   0  0  0  0  0  0  0  0  0  0  0  0
   -6.0434  -31.0907  -16.9587 O   0  0  0  0  0  0  0  0  0  0  0  0
   -5.9896  -30.3977  -14.3483 O   0  0  0  0  0  0  0  0  0  0  0  0
   -8.3621  -31.3512  -12.7676 O   0  0  0  0  0  0  0  0  0  0  0  0
   -8.7869  -28.6132  -14.7049 O   0  0  0  0  0  0  0  0  0  0  0  0
   -4.4415  -28.7819  -13.1632 O   0  0  0  0  0  0  0  0  0  0  0  0
  1  2  1  0
  1  7  1  1
  1 11  1  0
  2  3  1  0
  2  8  1  1
  3  4  1  0
  3  9  1  6
  5  4  1  0
  4 10  1  1
  5  6  1  6
 11  5  1  0
  6 12  1  0
 14  7  1  0
 14 13  1  6
 13 19  1  0
 14 15  1  0
 20 14  1  0
 16 15  1  0
 15 21  1  1
 17 16  1  0
 16 22  1  6
 17 18  1  1
 17 20  1  0
 23 18  1  0
M  END
$$$$
