
     RDKit          3D

 23 24  0  0  0  0  0  0  0  0999 V2000
   -6.5621  -33.4670  -15.0587 C   0  0  1  0  0  0  0  0  0  0  0  0
   -6.8345  -32.3635  -14.0730 C   0  0  1  0  0  0  0  0  0  0  0  0
   -7.5623  -31.1913  -14.6611 C   0  0  2  0  0  0  0  0  0  0  0  0
   -7.0040  -30.9604  -16.0368 C   0  0  1  0  0  0  0  0  0  0  0  0
   -7.3100  -32.1603  -16.8504 C   0  0  1  0  0  0  0  0  0  0  0  0
   -6.3760  -32.1420  -18.0686 C   0  0  0  0  0  0  0  0  0  0  0  0
   -6.9241  -34.6312  -14.4753 O   0  0  0  0  0  0  0  0  0  0  0  0
   -7.6511  -32.8003  -13.0083 O   0  0  0  0  0  0  0  0  0  0  0  0
   -7.3158  -30.0740  -13.8739 O   0  0  0  0  0  0  0  0  0  0  0  0
   -7.6900  -29.8665  -16.5822 O   0  0  0  0  0  0  0  0  0  0  0  0
   -7.2185  -33.3582  -16.2545 O   0  0  0  0  0  0  0  0  0  0  0  0
   -6.8097  -33.0199  -19.0446 O   0  0  0  0  0  0  0  0  0  0  0  0
   -7.3852  -36.8921  -14.1070 C   0  0  0  0  0  0  0  0  0  0  0  0
   -6.7794  -35.8177  -15.0245 C   0  0  1  0  0  0  0  0  0  0  0  0
   -7.1454  -36.1160  -16.3973 C   0  0  2  0  0  0  0  0  0  0  0  0
   -6.2180  -37.2781  -16.7576 C   0  0  1  0  0  0  0  0  0  0  0  0
   -5.2208  -37.3077  -15.6450 C   0  0  1  0  0  0  0  0  0  0  0  0
   -3.7888  -37.3540  -16.1418 C   0  0  0  0  0  0  0  0  0  0  0  0
   -8.3466  -36.3258  -13.2906 O   0  0  0  0  0  0  0  0  0  0  0  0
   -5.3876  -36.1224  -14.9801 O   0  0  0  0  0  0  0  0  0  0  0  0
   -6.9668  -35.1536  -17.3473 O   0  0  0  0  0  0  0  0  0  0  0  0
   -6.8946  -38.4872  -16.7892 O   0  0  0  0  0  0  0  0  0  0  0  0
   -2.8821  -36.8780  -15.2234 O   0  0  0  0  0  0  0  0  0  0  0  0
  1  2  1  0
  1  7  1  1
  1 11  1  0
  2  3  1  0
  2  8  1  1
  3  4  1  0
  3  9  1  1
  5  4  1  0
  4 10  1  6
  5  6  1  6
 11  5  1  0
  6 12  1  0
 14  7  1  0
 14 13  1  1
 13 19  1  0
 14 15  1  0
 20 14  1  0
 16 15  1  0
 15 21  1  6
 17 16  1  0
 16 22  1  1
 17 18  1  6
 17 20  1  0
 23 18  1  0
M  END
$$$$
