
     RDKit          3D

 23 24  0  0  0  0  0  0  0  0999 V2000
   -6.7358  -33.6795  -15.6416 C   0  0  1  0  0  0  0  0  0  0  0  0
   -7.5347  -34.3773  -16.7085 C   0  0  1  0  0  0  0  0  0  0  0  0
   -7.4102  -35.8717  -16.6794 C   0  0  2  0  0  0  0  0  0  0  0  0
   -5.9774  -36.1968  -16.3651 C   0  0  1  0  0  0  0  0  0  0  0  0
   -5.6877  -35.6741  -15.0092 C   0  0  1  0  0  0  0  0  0  0  0  0
   -4.1619  -35.5831  -14.8664 C   0  0  0  0  0  0  0  0  0  0  0  0
   -7.5462  -32.7691  -15.0574 O   0  0  0  0  0  0  0  0  0  0  0  0
   -8.9171  -34.1260  -16.5780 O   0  0  0  0  0  0  0  0  0  0  0  0
   -7.7270  -36.3691  -17.9367 O   0  0  0  0  0  0  0  0  0  0  0  0
   -5.8681  -37.5939  -16.3359 O   0  0  0  0  0  0  0  0  0  0  0  0
   -6.2241  -34.4935  -14.6678 O   0  0  0  0  0  0  0  0  0  0  0  0
   -3.8066  -34.9448  -13.6926 O   0  0  0  0  0  0  0  0  0  0  0  0
   -8.1558  -30.5982  -14.4449 C   0  0  0  0  0  0  0  0  0  0  0  0
   -7.1269  -31.7371  -14.3579 C   0  0  1  0  0  0  0  0  0  0  0  0
   -6.6537  -31.8349  -12.9890 C   0  0  2  0  0  0  0  0  0  0  0  0
   -5.6962  -30.6478  -12.8685 C   0  0  1  0  0  0  0  0  0  0  0  0
   -5.5049  -30.1887  -14.2778 C   0  0  1  0  0  0  0  0  0  0  0  0
   -4.0439  -30.0151  -14.6450 C   0  0  0  0  0  0  0  0  0  0  0  0
   -9.4322  -31.1229  -14.5281 O   0  0  0  0  0  0  0  0  0  0  0  0
   -6.0080  -31.1965  -15.0563 O   0  0  0  0  0  0  0  0  0  0  0  0
   -5.9595  -32.9473  -12.6133 O   0  0  0  0  0  0  0  0  0  0  0  0
   -6.2471  -29.6139  -12.1281 O   0  0  0  0  0  0  0  0  0  0  0  0
   -3.8539  -29.6859  -15.9669 O   0  0  0  0  0  0  0  0  0  0  0  0
  1  2  1  0
  1  7  1  1
  1 11  1  0
  2  3  1  0
  2  8  1  1
  3  4  1  0
  3  9  1  6
  5  4  1  0
  4 10  1  1
  5  6  1  6
 11  5  1  0
  6 12  1  0
 14  7  1  0
 14 13  1  1
 13 19  1  0
 14 15  1  0
 20 14  1  0
 16 15  1  0
 15 21  1  6
 17 16  1  0
 16 22  1  1
 17 18  1  6
 17 20  1  0
 23 18  1  0
M  END
$$$$
