
     RDKit          3D

 23 24  0  0  0  0  0  0  0  0999 V2000
   -6.9332  -33.8992  -15.1353 C   0  0  1  0  0  0  0  0  0  0  0  0
   -7.7915  -35.1128  -14.9029 C   0  0  1  0  0  0  0  0  0  0  0  0
   -7.0161  -36.3922  -14.7952 C   0  0  2  0  0  0  0  0  0  0  0  0
   -5.9121  -36.3351  -15.8128 C   0  0  1  0  0  0  0  0  0  0  0  0
   -5.0200  -35.2118  -15.4417 C   0  0  1  0  0  0  0  0  0  0  0  0
   -4.1864  -34.8562  -16.6808 C   0  0  0  0  0  0  0  0  0  0  0  0
   -7.3388  -32.9432  -14.2702 O   0  0  0  0  0  0  0  0  0  0  0  0
   -8.5119  -35.0225  -13.6930 O   0  0  0  0  0  0  0  0  0  0  0  0
   -7.8619  -37.4517  -15.0967 O   0  0  0  0  0  0  0  0  0  0  0  0
   -5.1895  -37.5313  -15.7051 O   0  0  0  0  0  0  0  0  0  0  0  0
   -5.5888  -34.0932  -14.9689 O   0  0  0  0  0  0  0  0  0  0  0  0
   -3.2507  -33.8806  -16.3910 O   0  0  0  0  0  0  0  0  0  0  0  0
   -8.1508  -30.7968  -13.8305 C   0  0  0  0  0  0  0  0  0  0  0  0
   -6.9995  -31.6747  -14.3472 C   0  0  1  0  0  0  0  0  0  0  0  0
   -5.7461  -31.1474  -13.8386 C   0  0  2  0  0  0  0  0  0  0  0  0
   -5.5089  -29.9153  -14.7139 C   0  0  1  0  0  0  0  0  0  0  0  0
   -6.5031  -30.0569  -15.8206 C   0  0  1  0  0  0  0  0  0  0  0  0
   -5.8816  -29.8848  -17.1931 C   0  0  0  0  0  0  0  0  0  0  0  0
   -8.6528  -31.3236  -12.6549 O   0  0  0  0  0  0  0  0  0  0  0  0
   -6.9580  -31.3455  -15.7335 O   0  0  0  0  0  0  0  0  0  0  0  0
   -4.6260  -31.9207  -13.9261 O   0  0  0  0  0  0  0  0  0  0  0  0
   -5.7626  -28.7384  -14.0275 O   0  0  0  0  0  0  0  0  0  0  0  0
   -6.7998  -29.9533  -18.2150 O   0  0  0  0  0  0  0  0  0  0  0  0
  1  2  1  0
  1  7  1  1
  1 11  1  0
  2  3  1  0
  2  8  1  1
  3  4  1  0
  3  9  1  6
  5  4  1  0
  4 10  1  1
  5  6  1  6
 11  5  1  0
  6 12  1  0
 14  7  1  0
 14 13  1  1
 13 19  1  0
 14 15  1  0
 20 14  1  0
 16 15  1  0
 15 21  1  6
 17 16  1  0
 16 22  1  1
 17 18  1  6
 17 20  1  0
 23 18  1  0
M  END
$$$$
