
     RDKit          3D

 23 24  0  0  0  0  0  0  0  0999 V2000
   -6.6853  -32.3181  -15.2600 C   0  0  1  0  0  0  0  0  0  0  0  0
   -6.8123  -30.8724  -15.6567 C   0  0  1  0  0  0  0  0  0  0  0  0
   -7.1719  -29.9613  -14.5208 C   0  0  2  0  0  0  0  0  0  0  0  0
   -8.1768  -30.6824  -13.6677 C   0  0  1  0  0  0  0  0  0  0  0  0
   -7.5117  -31.8849  -13.1137 C   0  0  1  0  0  0  0  0  0  0  0  0
   -8.6129  -32.8446  -12.6414 C   0  0  0  0  0  0  0  0  0  0  0  0
   -5.5343  -32.7857  -15.7921 O   0  0  0  0  0  0  0  0  0  0  0  0
   -5.5998  -30.3587  -16.1637 O   0  0  0  0  0  0  0  0  0  0  0  0
   -7.7531  -28.8116  -15.0395 O   0  0  0  0  0  0  0  0  0  0  0  0
   -8.5062  -29.8278  -12.6067 O   0  0  0  0  0  0  0  0  0  0  0  0
   -6.6685  -32.5554  -13.9124 O   0  0  0  0  0  0  0  0  0  0  0  0
   -9.4759  -32.2206  -11.7598 O   0  0  0  0  0  0  0  0  0  0  0  0
   -3.9664  -34.5175  -15.7413 C   0  0  0  0  0  0  0  0  0  0  0  0
   -5.3485  -34.0230  -16.1981 C   0  0  1  0  0  0  0  0  0  0  0  0
   -6.3150  -35.0872  -15.9958 C   0  0  2  0  0  0  0  0  0  0  0  0
   -6.0192  -36.0468  -17.1499 C   0  0  1  0  0  0  0  0  0  0  0  0
   -5.1177  -35.2669  -18.0512 C   0  0  1  0  0  0  0  0  0  0  0  0
   -5.5701  -35.2924  -19.4984 C   0  0  0  0  0  0  0  0  0  0  0  0
   -3.0290  -33.5155  -15.9105 O   0  0  0  0  0  0  0  0  0  0  0  0
   -5.2054  -33.9718  -17.6154 O   0  0  0  0  0  0  0  0  0  0  0  0
   -7.6439  -34.7862  -16.0578 O   0  0  0  0  0  0  0  0  0  0  0  0
   -5.3527  -37.1827  -16.7183 O   0  0  0  0  0  0  0  0  0  0  0  0
   -4.8517  -34.4403  -20.3047 O   0  0  0  0  0  0  0  0  0  0  0  0
  1  2  1  0
  1  7  1  1
  1 11  1  0
  2  3  1  0
  2  8  1  1
  3  4  1  0
  3  9  1  6
  5  4  1  0
  4 10  1  1
  5  6  1  6
 11  5  1  0
  6 12  1  0
 14  7  1  0
 14 13  1  1
 13 19  1  0
 14 15  1  0
 20 14  1  0
 16 15  1  0
 15 21  1  6
 17 16  1  0
 16 22  1  1
 17 18  1  6
 17 20  1  0
 23 18  1  0
M  END
$$$$
