
     RDKit          3D

 23 24  0  0  0  0  0  0  0  0999 V2000
   -6.9590  -32.4918  -14.3013 C   0  0  1  0  0  0  0  0  0  0  0  0
   -7.8646  -31.4119  -13.7748 C   0  0  1  0  0  0  0  0  0  0  0  0
   -7.1728  -30.1021  -13.5388 C   0  0  2  0  0  0  0  0  0  0  0  0
   -5.8184  -30.4070  -12.9642 C   0  0  1  0  0  0  0  0  0  0  0  0
   -5.0586  -31.1625  -13.9875 C   0  0  1  0  0  0  0  0  0  0  0  0
   -3.8935  -31.8622  -13.2736 C   0  0  0  0  0  0  0  0  0  0  0  0
   -7.5869  -33.0746  -15.3467 O   0  0  0  0  0  0  0  0  0  0  0  0
   -8.9066  -31.1139  -14.6785 O   0  0  0  0  0  0  0  0  0  0  0  0
   -7.9078  -29.3710  -12.6148 O   0  0  0  0  0  0  0  0  0  0  0  0
   -5.1759  -29.1800  -12.7490 O   0  0  0  0  0  0  0  0  0  0  0  0
   -5.7252  -32.0696  -14.7163 O   0  0  0  0  0  0  0  0  0  0  0  0
   -3.2479  -31.0002  -12.4068 O   0  0  0  0  0  0  0  0  0  0  0  0
   -5.8525  -34.3447  -16.2624 C   0  0  0  0  0  0  0  0  0  0  0  0
   -7.3176  -34.2791  -15.8016 C   0  0  1  0  0  0  0  0  0  0  0  0
   -7.6349  -35.4983  -15.0803 C   0  0  2  0  0  0  0  0  0  0  0  0
   -7.7897  -36.5311  -16.1982 C   0  0  1  0  0  0  0  0  0  0  0  0
   -7.8397  -35.7121  -17.4473 C   0  0  1  0  0  0  0  0  0  0  0  0
   -9.0071  -36.0790  -18.3429 C   0  0  0  0  0  0  0  0  0  0  0  0
   -5.4499  -33.1065  -16.7274 O   0  0  0  0  0  0  0  0  0  0  0  0
   -8.0333  -34.4238  -17.0258 O   0  0  0  0  0  0  0  0  0  0  0  0
   -8.7774  -35.5414  -14.3363 O   0  0  0  0  0  0  0  0  0  0  0  0
   -6.7019  -37.3874  -16.2635 O   0  0  0  0  0  0  0  0  0  0  0  0
   -9.1418  -35.2417  -19.4260 O   0  0  0  0  0  0  0  0  0  0  0  0
  1  2  1  0
  1  7  1  6
  1 11  1  0
  2  3  1  0
  2  8  1  6
  3  4  1  0
  3  9  1  1
  5  4  1  0
  4 10  1  6
  5  6  1  1
 11  5  1  0
  6 12  1  0
 14  7  1  0
 14 13  1  6
 13 19  1  0
 14 15  1  0
 20 14  1  0
 16 15  1  0
 15 21  1  6
 17 16  1  0
 16 22  1  6
 17 18  1  6
 17 20  1  0
 23 18  1  0
M  END
$$$$
