
     RDKit          3D

 23 24  0  0  0  0  0  0  0  0999 V2000
   -6.3842  -33.1742  -14.9326 C   0  0  1  0  0  0  0  0  0  0  0  0
   -7.1510  -32.6016  -13.7716 C   0  0  1  0  0  0  0  0  0  0  0  0
   -7.2569  -31.1056  -13.7939 C   0  0  2  0  0  0  0  0  0  0  0  0
   -5.9351  -30.5688  -14.2652 C   0  0  1  0  0  0  0  0  0  0  0  0
   -5.7280  -31.0463  -15.6524 C   0  0  1  0  0  0  0  0  0  0  0  0
   -4.2326  -30.9063  -15.9699 C   0  0  0  0  0  0  0  0  0  0  0  0
   -7.1101  -34.1986  -15.4330 O   0  0  0  0  0  0  0  0  0  0  0  0
   -8.4855  -33.0593  -13.7469 O   0  0  0  0  0  0  0  0  0  0  0  0
   -7.4982  -30.6575  -12.5017 O   0  0  0  0  0  0  0  0  0  0  0  0
   -6.0414  -29.1714  -14.2870 O   0  0  0  0  0  0  0  0  0  0  0  0
   -6.1164  -32.2957  -15.9469 O   0  0  0  0  0  0  0  0  0  0  0  0
   -4.0261  -30.6871  -17.3193 O   0  0  0  0  0  0  0  0  0  0  0  0
   -7.3221  -35.2457  -17.5112 C   0  0  0  0  0  0  0  0  0  0  0  0
   -6.6142  -35.1852  -16.1479 C   0  0  1  0  0  0  0  0  0  0  0  0
   -5.1918  -35.3924  -16.3511 C   0  0  2  0  0  0  0  0  0  0  0  0
   -5.0935  -36.8992  -16.5966 C   0  0  1  0  0  0  0  0  0  0  0  0
   -6.4378  -37.4213  -16.2045 C   0  0  1  0  0  0  0  0  0  0  0  0
   -6.3548  -38.6055  -15.2609 C   0  0  0  0  0  0  0  0  0  0  0  0
   -7.6238  -33.9669  -17.9415 O   0  0  0  0  0  0  0  0  0  0  0  0
   -7.0387  -36.3953  -15.5255 O   0  0  0  0  0  0  0  0  0  0  0  0
   -4.3343  -35.0973  -15.3322 O   0  0  0  0  0  0  0  0  0  0  0  0
   -4.8686  -37.1904  -17.9328 O   0  0  0  0  0  0  0  0  0  0  0  0
   -7.5725  -38.9580  -14.7270 O   0  0  0  0  0  0  0  0  0  0  0  0
  1  2  1  0
  1  7  1  6
  1 11  1  0
  2  3  1  0
  2  8  1  6
  3  4  1  0
  3  9  1  1
  5  4  1  0
  4 10  1  6
  5  6  1  1
 11  5  1  0
  6 12  1  0
 14  7  1  0
 14 13  1  6
 13 19  1  0
 14 15  1  0
 20 14  1  0
 16 15  1  0
 15 21  1  1
 17 16  1  0
 16 22  1  6
 17 18  1  1
 17 20  1  0
 23 18  1  0
M  END
$$$$
