
     RDKit          3D

 23 24  0  0  0  0  0  0  0  0999 V2000
   -7.1081  -32.1944  -14.7872 C   0  0  1  0  0  0  0  0  0  0  0  0
   -6.3341  -30.9075  -14.6959 C   0  0  1  0  0  0  0  0  0  0  0  0
   -6.7827  -30.0077  -13.5828 C   0  0  2  0  0  0  0  0  0  0  0  0
   -8.2819  -30.0843  -13.5202 C   0  0  1  0  0  0  0  0  0  0  0  0
   -8.6440  -31.4785  -13.1730 C   0  0  1  0  0  0  0  0  0  0  0  0
  -10.1180  -31.6801  -13.5519 C   0  0  0  0  0  0  0  0  0  0  0  0
   -6.2126  -33.1990  -14.9118 O   0  0  0  0  0  0  0  0  0  0  0  0
   -4.9638  -31.1355  -14.4480 O   0  0  0  0  0  0  0  0  0  0  0  0
   -6.4032  -28.7059  -13.8827 O   0  0  0  0  0  0  0  0  0  0  0  0
   -8.6947  -29.2445  -12.4767 O   0  0  0  0  0  0  0  0  0  0  0  0
   -7.9193  -32.4659  -13.7190 O   0  0  0  0  0  0  0  0  0  0  0  0
  -10.8947  -30.6208  -13.1207 O   0  0  0  0  0  0  0  0  0  0  0  0
   -5.5479  -35.4320  -15.0903 C   0  0  0  0  0  0  0  0  0  0  0  0
   -6.3968  -34.2761  -15.6440 C   0  0  1  0  0  0  0  0  0  0  0  0
   -7.7073  -34.7890  -16.0008 C   0  0  2  0  0  0  0  0  0  0  0  0
   -7.4428  -35.5312  -17.3121 C   0  0  1  0  0  0  0  0  0  0  0  0
   -6.0678  -35.0979  -17.7058 C   0  0  1  0  0  0  0  0  0  0  0  0
   -5.9902  -34.6290  -19.1458 C   0  0  0  0  0  0  0  0  0  0  0  0
   -5.1598  -35.1511  -13.7934 O   0  0  0  0  0  0  0  0  0  0  0  0
   -5.7866  -34.0220  -16.9069 O   0  0  0  0  0  0  0  0  0  0  0  0
   -8.7153  -33.9019  -16.2406 O   0  0  0  0  0  0  0  0  0  0  0  0
   -7.4498  -36.9059  -17.1371 O   0  0  0  0  0  0  0  0  0  0  0  0
   -5.2792  -33.4612  -19.2967 O   0  0  0  0  0  0  0  0  0  0  0  0
  1  2  1  0
  1  7  1  1
  1 11  1  0
  2  3  1  0
  2  8  1  1
  3  4  1  0
  3  9  1  6
  5  4  1  0
  4 10  1  1
  5  6  1  6
 11  5  1  0
  6 12  1  0
 14  7  1  0
 14 13  1  1
 13 19  1  0
 14 15  1  0
 20 14  1  0
 16 15  1  0
 15 21  1  6
 17 16  1  0
 16 22  1  1
 17 18  1  6
 17 20  1  0
 23 18  1  0
M  END
$$$$
