
     RDKit          3D

 23 24  0  0  0  0  0  0  0  0999 V2000
   -6.7298  -33.2199  -14.6332 C   0  0  1  0  0  0  0  0  0  0  0  0
   -7.5807  -32.5130  -13.6134 C   0  0  1  0  0  0  0  0  0  0  0  0
   -7.3606  -31.0302  -13.5633 C   0  0  2  0  0  0  0  0  0  0  0  0
   -5.8870  -30.7890  -13.7299 C   0  0  1  0  0  0  0  0  0  0  0  0
   -5.5040  -31.2761  -15.0758 C   0  0  1  0  0  0  0  0  0  0  0  0
   -3.9802  -31.4628  -15.0823 C   0  0  0  0  0  0  0  0  0  0  0  0
   -7.5369  -34.0507  -15.3298 O   0  0  0  0  0  0  0  0  0  0  0  0
   -8.9576  -32.6665  -13.8813 O   0  0  0  0  0  0  0  0  0  0  0  0
   -7.7629  -30.5626  -12.3190 O   0  0  0  0  0  0  0  0  0  0  0  0
   -5.6883  -29.4023  -13.6856 O   0  0  0  0  0  0  0  0  0  0  0  0
   -6.0787  -32.4041  -15.5182 O   0  0  0  0  0  0  0  0  0  0  0  0
   -3.3970  -30.8539  -13.9866 O   0  0  0  0  0  0  0  0  0  0  0  0
   -8.3292  -35.3891  -17.0736 C   0  0  0  0  0  0  0  0  0  0  0  0
   -7.1256  -34.8816  -16.2630 C   0  0  1  0  0  0  0  0  0  0  0  0
   -6.0382  -34.5854  -17.1781 C   0  0  2  0  0  0  0  0  0  0  0  0
   -5.5047  -35.9724  -17.5414 C   0  0  1  0  0  0  0  0  0  0  0  0
   -6.1576  -36.8848  -16.5541 C   0  0  1  0  0  0  0  0  0  0  0  0
   -5.1709  -37.8100  -15.8686 C   0  0  0  0  0  0  0  0  0  0  0  0
   -9.4266  -34.5806  -16.8422 O   0  0  0  0  0  0  0  0  0  0  0  0
   -6.6835  -36.0608  -15.5953 O   0  0  0  0  0  0  0  0  0  0  0  0
   -4.9787  -33.8568  -16.7231 O   0  0  0  0  0  0  0  0  0  0  0  0
   -5.8793  -36.3502  -18.8210 O   0  0  0  0  0  0  0  0  0  0  0  0
   -5.6517  -38.3382  -14.6931 O   0  0  0  0  0  0  0  0  0  0  0  0
  1  2  1  0
  1  7  1  6
  1 11  1  0
  2  3  1  0
  2  8  1  6
  3  4  1  0
  3  9  1  1
  5  4  1  0
  4 10  1  6
  5  6  1  1
 11  5  1  0
  6 12  1  0
 14  7  1  0
 14 13  1  6
 13 19  1  0
 14 15  1  0
 20 14  1  0
 16 15  1  0
 15 21  1  1
 17 16  1  0
 16 22  1  6
 17 18  1  1
 17 20  1  0
 23 18  1  0
M  END
$$$$
