
     RDKit          3D

 23 24  0  0  0  0  0  0  0  0999 V2000
   -6.7460  -32.7034  -14.2815 C   0  0  1  0  0  0  0  0  0  0  0  0
   -7.1951  -31.7273  -13.2284 C   0  0  1  0  0  0  0  0  0  0  0  0
   -7.5063  -30.3605  -13.7619 C   0  0  2  0  0  0  0  0  0  0  0  0
   -6.4761  -30.0416  -14.8082 C   0  0  1  0  0  0  0  0  0  0  0  0
   -6.6364  -31.0230  -15.9067 C   0  0  1  0  0  0  0  0  0  0  0  0
   -5.3416  -31.0076  -16.7313 C   0  0  0  0  0  0  0  0  0  0  0  0
   -7.4423  -33.8473  -14.0985 O   0  0  0  0  0  0  0  0  0  0  0  0
   -8.3835  -32.1485  -12.5949 O   0  0  0  0  0  0  0  0  0  0  0  0
   -7.4030  -29.4436  -12.7239 O   0  0  0  0  0  0  0  0  0  0  0  0
   -6.7740  -28.7653  -15.3050 O   0  0  0  0  0  0  0  0  0  0  0  0
   -6.9212  -32.2906  -15.5744 O   0  0  0  0  0  0  0  0  0  0  0  0
   -5.2820  -29.8938  -17.5481 O   0  0  0  0  0  0  0  0  0  0  0  0
   -7.7648  -36.1602  -14.0176 C   0  0  0  0  0  0  0  0  0  0  0  0
   -7.2893  -34.9373  -14.8188 C   0  0  1  0  0  0  0  0  0  0  0  0
   -7.7555  -35.0662  -16.1876 C   0  0  2  0  0  0  0  0  0  0  0  0
   -6.8087  -36.1126  -16.7782 C   0  0  1  0  0  0  0  0  0  0  0  0
   -5.7208  -36.2359  -15.7610 C   0  0  1  0  0  0  0  0  0  0  0  0
   -4.3352  -36.1310  -16.3682 C   0  0  0  0  0  0  0  0  0  0  0  0
   -9.0250  -35.9229  -13.5010 O   0  0  0  0  0  0  0  0  0  0  0  0
   -5.8861  -35.1641  -14.9251 O   0  0  0  0  0  0  0  0  0  0  0  0
   -7.7028  -33.9744  -17.0035 O   0  0  0  0  0  0  0  0  0  0  0  0
   -7.4284  -37.3432  -16.9274 O   0  0  0  0  0  0  0  0  0  0  0  0
   -3.3345  -36.0778  -15.4261 O   0  0  0  0  0  0  0  0  0  0  0  0
  1  2  1  0
  1  7  1  6
  1 11  1  0
  2  3  1  0
  2  8  1  6
  3  4  1  0
  3  9  1  1
  5  4  1  0
  4 10  1  6
  5  6  1  1
 11  5  1  0
  6 12  1  0
 14  7  1  0
 14 13  1  1
 13 19  1  0
 14 15  1  0
 20 14  1  0
 16 15  1  0
 15 21  1  6
 17 16  1  0
 16 22  1  1
 17 18  1  6
 17 20  1  0
 23 18  1  0
M  END
$$$$
