
     RDKit          3D

 26 29  0  0  0  0  0  0  0  0999 V2000
   42.5232   17.4824    9.2098 C   0  0  0  0  0  0  0  0  0  0  0  0
   40.3411   19.0838   11.1965 C   0  0  0  0  0  0  0  0  0  0  0  0
   38.0659   18.8718   12.0556 C   0  0  0  0  0  0  0  0  0  0  0  0
   38.5514   18.4291   13.2667 C   0  0  0  0  0  0  0  0  0  0  0  0
   39.9046   18.3166   13.4391 C   0  0  0  0  0  0  0  0  0  0  0  0
   40.7781   18.6418   12.4139 C   0  0  0  0  0  0  0  0  0  0  0  0
   42.6018   16.2885    4.4192 C   0  0  0  0  0  0  0  0  0  0  0  0
   42.7254   17.1596    5.6117 C   0  0  0  0  0  0  0  0  0  0  0  0
   43.4891   18.1718    5.4317 O   0  0  0  0  0  0  0  0  0  0  0  0
   42.1125   16.9920    6.8544 N   0  0  0  0  0  0  0  0  0  0  0  0
   42.7166   16.5056    8.0742 C   0  0  1  0  0  0  0  0  0  0  0  0
   41.3448   18.3101    9.0932 N   0  0  0  0  0  0  0  0  0  0  0  0
   41.1562   19.4315   10.0186 C   0  0  0  0  0  0  0  0  0  0  0  0
   38.9505   19.1867   11.0574 C   0  0  0  0  0  0  0  0  0  0  0  0
   42.1998   18.5303   12.6688 C   0  0  0  0  0  0  0  0  0  0  0  0
   43.0708   18.7182   11.5836 O   0  0  0  0  0  0  0  0  0  0  0  0
   42.7663   18.2842   13.7476 O   0  0  0  0  0  0  0  0  0  0  0  0
   40.3574   18.0346    8.1240 C   0  0  0  0  0  0  0  0  0  0  0  0
   39.0230   18.4373    8.3127 C   0  0  0  0  0  0  0  0  0  0  0  0
   38.1284   18.1326    7.3079 C   0  0  0  0  0  0  0  0  0  0  0  0
   38.4632   17.4634    6.1431 C   0  0  0  0  0  0  0  0  0  0  0  0
   39.7902   17.0823    5.9958 C   0  0  0  0  0  0  0  0  0  0  0  0
   40.7223   17.3674    6.9786 C   0  0  0  0  0  0  0  0  0  0  0  0
   44.1780   16.1834    7.9639 C   0  0  2  0  0  0  0  0  0  0  0  0
   44.6415   15.3606    9.1540 C   0  0  0  0  0  0  0  0  0  0  0  0
   45.1748   16.6250    8.9188 C   0  0  0  0  0  0  0  0  0  0  0  0
 11  1  1  1
 12  1  1  0
  2  6  1  0
 13  2  1  0
  2 14  2  0
  3  4  2  0
 14  3  1  0
  5  4  1  0
  6  5  2  0
  6 15  1  0
  8  7  1  0
  8  9  2  0
 10  8  1  0
 11 10  1  0
 10 23  1  0
 11 24  1  0
 12 13  1  0
 12 18  1  0
 15 16  1  0
 15 17  2  0
 18 19  2  0
 18 23  1  0
 19 20  1  0
 20 21  2  0
 21 22  1  0
 22 23  2  0
 24 25  1  1
 24 26  1  0
 25 26  2  0
M  END
$$$$
