
     RDKit          3D

 26 29  0  0  0  0  0  0  0  0999 V2000
   41.9424   17.2498    9.3055 C   0  0  0  0  0  0  0  0  0  0  0  0
   40.4508   19.9460   10.9783 C   0  0  0  0  0  0  0  0  0  0  0  0
   38.8274   21.6460   11.6373 C   0  0  0  0  0  0  0  0  0  0  0  0
   38.3187   20.8037   12.6018 C   0  0  0  0  0  0  0  0  0  0  0  0
   38.8657   19.5579   12.7517 C   0  0  0  0  0  0  0  0  0  0  0  0
   39.9158   19.1447   11.9477 C   0  0  0  0  0  0  0  0  0  0  0  0
   41.3188   16.3285    4.4497 C   0  0  0  0  0  0  0  0  0  0  0  0
   41.9502   16.7520    5.7217 C   0  0  0  0  0  0  0  0  0  0  0  0
   43.2017   17.0025    5.6158 O   0  0  0  0  0  0  0  0  0  0  0  0
   41.3374   16.9019    6.9668 N   0  0  0  0  0  0  0  0  0  0  0  0
   41.6910   16.2460    8.2053 C   0  0  1  0  0  0  0  0  0  0  0  0
   41.2253   18.4949    9.1551 N   0  0  0  0  0  0  0  0  0  0  0  0
   41.5402   19.6205   10.0401 C   0  0  0  0  0  0  0  0  0  0  0  0
   39.8659   21.2135   10.8547 C   0  0  0  0  0  0  0  0  0  0  0  0
   40.4708   17.8262   12.1759 C   0  0  0  0  0  0  0  0  0  0  0  0
   41.8022   17.7492   12.6153 O   0  0  0  0  0  0  0  0  0  0  0  0
   39.9116   16.7255   12.0312 O   0  0  0  0  0  0  0  0  0  0  0  0
   40.2040   18.6323    8.1916 C   0  0  0  0  0  0  0  0  0  0  0  0
   39.1686   19.5693    8.3602 C   0  0  0  0  0  0  0  0  0  0  0  0
   38.2185   19.6398    7.3625 C   0  0  0  0  0  0  0  0  0  0  0  0
   38.2254   18.8534    6.2231 C   0  0  0  0  0  0  0  0  0  0  0  0
   39.2637   17.9405    6.0951 C   0  0  0  0  0  0  0  0  0  0  0  0
   40.2392   17.8357    7.0716 C   0  0  0  0  0  0  0  0  0  0  0  0
   42.8764   15.3306    8.1129 C   0  0  2  0  0  0  0  0  0  0  0  0
   43.7071   15.3917    9.3834 C   0  0  0  0  0  0  0  0  0  0  0  0
   44.2516   15.7853    8.1640 C   0  0  0  0  0  0  0  0  0  0  0  0
 11  1  1  1
 12  1  1  0
  2  6  1  0
 13  2  1  0
  2 14  2  0
  3  4  2  0
 14  3  1  0
  5  4  1  0
  6  5  2  0
  6 15  1  0
  8  7  1  0
  8  9  2  0
 10  8  1  0
 11 10  1  0
 10 23  1  0
 11 24  1  0
 12 13  1  0
 12 18  1  0
 15 16  1  0
 15 17  2  0
 18 19  2  0
 18 23  1  0
 19 20  1  0
 20 21  2  0
 21 22  1  0
 22 23  2  0
 24 25  1  1
 24 26  1  0
 25 26  2  0
M  END
$$$$
