
     RDKit          3D

 26 29  0  0  0  0  0  0  0  0999 V2000
   39.8310   18.3089    7.3223 C   0  0  0  0  0  0  0  0  0  0  0  0
   38.6390   20.5079    9.5208 C   0  0  0  0  0  0  0  0  0  0  0  0
   39.4960   22.6009   10.4397 C   0  0  0  0  0  0  0  0  0  0  0  0
   38.5727   23.3147    9.7074 C   0  0  0  0  0  0  0  0  0  0  0  0
   37.6997   22.6384    8.8985 C   0  0  0  0  0  0  0  0  0  0  0  0
   37.7398   21.2560    8.8136 C   0  0  0  0  0  0  0  0  0  0  0  0
   42.6539   14.7117    8.7082 C   0  0  0  0  0  0  0  0  0  0  0  0
   42.1825   15.5728    7.5981 C   0  0  0  0  0  0  0  0  0  0  0  0
   42.1277   14.9714    6.4688 O   0  0  0  0  0  0  0  0  0  0  0  0
   41.8051   16.9150    7.6643 N   0  0  0  0  0  0  0  0  0  0  0  0
   41.0414   17.6625    6.6910 C   0  0  1  0  0  0  0  0  0  0  0  0
   39.9769   18.6075    8.7283 N   0  0  0  0  0  0  0  0  0  0  0  0
   38.8081   19.0437    9.4983 C   0  0  0  0  0  0  0  0  0  0  0  0
   39.5155   21.2344   10.3379 C   0  0  0  0  0  0  0  0  0  0  0  0
   36.7696   20.5971    7.9632 C   0  0  0  0  0  0  0  0  0  0  0  0
   35.6667   21.3511    7.5310 O   0  0  0  0  0  0  0  0  0  0  0  0
   36.7832   19.4232    7.5544 O   0  0  0  0  0  0  0  0  0  0  0  0
   41.2337   18.5175    9.3627 C   0  0  0  0  0  0  0  0  0  0  0  0
   41.5226   19.2759   10.5115 C   0  0  0  0  0  0  0  0  0  0  0  0
   42.7742   19.1166   11.0693 C   0  0  0  0  0  0  0  0  0  0  0  0
   43.7469   18.2667   10.5709 C   0  0  0  0  0  0  0  0  0  0  0  0
   43.4225   17.5367    9.4352 C   0  0  0  0  0  0  0  0  0  0  0  0
   42.1783   17.6648    8.8422 C   0  0  0  0  0  0  0  0  0  0  0  0
   40.5923   16.8656    5.5015 C   0  0  2  0  0  0  0  0  0  0  0  0
   40.4759   17.7495    4.2713 C   0  0  0  0  0  0  0  0  0  0  0  0
   39.3536   17.1090    4.7894 C   0  0  0  0  0  0  0  0  0  0  0  0
 11  1  1  1
 12  1  1  0
  2  6  1  0
 13  2  1  0
  2 14  2  0
  3  4  2  0
 14  3  1  0
  5  4  1  0
  6  5  2  0
  6 15  1  0
  8  7  1  0
  8  9  2  0
 10  8  1  0
 11 10  1  0
 10 23  1  0
 11 24  1  0
 12 13  1  0
 12 18  1  0
 15 16  1  0
 15 17  2  0
 18 19  2  0
 18 23  1  0
 19 20  1  0
 20 21  2  0
 21 22  1  0
 22 23  2  0
 24 25  1  6
 24 26  1  0
 25 26  2  0
M  END
$$$$
