
     RDKit          3D

 26 29  0  0  0  0  0  0  0  0999 V2000
   41.2331   17.0094   10.0069 C   0  0  0  0  0  0  0  0  0  0  0  0
   40.5118   18.9114   11.9522 C   0  0  0  0  0  0  0  0  0  0  0  0
   39.5412   17.4958   13.6882 C   0  0  0  0  0  0  0  0  0  0  0  0
   40.5030   17.9122   14.5826 C   0  0  0  0  0  0  0  0  0  0  0  0
   41.4497   18.8106   14.1700 C   0  0  0  0  0  0  0  0  0  0  0  0
   41.4455   19.2974   12.8727 C   0  0  0  0  0  0  0  0  0  0  0  0
   42.5329   16.6545    5.2125 C   0  0  0  0  0  0  0  0  0  0  0  0
   42.6276   16.6203    6.6909 C   0  0  0  0  0  0  0  0  0  0  0  0
   43.8275   16.5165    7.1267 O   0  0  0  0  0  0  0  0  0  0  0  0
   41.5815   16.6922    7.6121 N   0  0  0  0  0  0  0  0  0  0  0  0
   41.4885   16.0244    8.8907 C   0  0  1  0  0  0  0  0  0  0  0  0
   40.5375   18.2084    9.5996 N   0  0  0  0  0  0  0  0  0  0  0  0
   40.4130   19.3254   10.5409 C   0  0  0  0  0  0  0  0  0  0  0  0
   39.5590   17.9917   12.4107 C   0  0  0  0  0  0  0  0  0  0  0  0
   42.4558   20.2688   12.5061 C   0  0  0  0  0  0  0  0  0  0  0  0
   43.3816   20.6463   13.4920 O   0  0  0  0  0  0  0  0  0  0  0  0
   42.6168   20.8271   11.4072 O   0  0  0  0  0  0  0  0  0  0  0  0
   39.9478   18.3067    8.3217 C   0  0  0  0  0  0  0  0  0  0  0  0
   38.8603   19.1677    8.0886 C   0  0  0  0  0  0  0  0  0  0  0  0
   38.3541   19.2050    6.8060 C   0  0  0  0  0  0  0  0  0  0  0  0
   38.8471   18.4551    5.7517 C   0  0  0  0  0  0  0  0  0  0  0  0
   39.9202   17.6170    6.0236 C   0  0  0  0  0  0  0  0  0  0  0  0
   40.4603   17.5478    7.2962 C   0  0  0  0  0  0  0  0  0  0  0  0
   42.6842   15.1925    9.2511 C   0  0  2  0  0  0  0  0  0  0  0  0
   43.4203   15.7897   10.4384 C   0  0  0  0  0  0  0  0  0  0  0  0
   44.0487   15.6785    9.2011 C   0  0  0  0  0  0  0  0  0  0  0  0
 11  1  1  1
 12  1  1  0
  2  6  1  0
 13  2  1  0
  2 14  2  0
  3  4  2  0
 14  3  1  0
  5  4  1  0
  6  5  2  0
  6 15  1  0
  8  7  1  0
  8  9  2  0
 10  8  1  0
 11 10  1  0
 10 23  1  0
 11 24  1  0
 12 13  1  0
 12 18  1  0
 15 16  1  0
 15 17  2  0
 18 19  2  0
 18 23  1  0
 19 20  1  0
 20 21  2  0
 21 22  1  0
 22 23  2  0
 24 25  1  1
 24 26  1  0
 25 26  2  0
M  END
$$$$
