
     RDKit          3D

 26 29  0  0  0  0  0  0  0  0999 V2000
   41.9248   17.3039    9.4019 C   0  0  0  0  0  0  0  0  0  0  0  0
   39.7155   19.1498   11.0712 C   0  0  0  0  0  0  0  0  0  0  0  0
   39.2793   17.7242   13.0043 C   0  0  0  0  0  0  0  0  0  0  0  0
   38.2008   18.5072   13.3538 C   0  0  0  0  0  0  0  0  0  0  0  0
   37.8858   19.5894   12.5770 C   0  0  0  0  0  0  0  0  0  0  0  0
   38.6375   19.8975   11.4545 C   0  0  0  0  0  0  0  0  0  0  0  0
   43.3930   17.7934    5.4215 C   0  0  0  0  0  0  0  0  0  0  0  0
   42.4883   16.7118    5.8772 C   0  0  0  0  0  0  0  0  0  0  0  0
   42.4252   15.7201    5.0692 O   0  0  0  0  0  0  0  0  0  0  0  0
   41.7363   16.6708    7.0523 N   0  0  0  0  0  0  0  0  0  0  0  0
   42.1727   16.2382    8.3607 C   0  0  1  0  0  0  0  0  0  0  0  0
   40.8236   18.1896    9.1015 N   0  0  0  0  0  0  0  0  0  0  0  0
   40.6128   19.3839    9.9253 C   0  0  0  0  0  0  0  0  0  0  0  0
   40.0070   18.0504   11.8898 C   0  0  0  0  0  0  0  0  0  0  0  0
   38.2349   21.0378   10.6569 C   0  0  0  0  0  0  0  0  0  0  0  0
   36.8698   21.3661   10.6358 O   0  0  0  0  0  0  0  0  0  0  0  0
   38.9549   21.7838    9.9710 O   0  0  0  0  0  0  0  0  0  0  0  0
   39.9293   17.9043    8.0485 C   0  0  0  0  0  0  0  0  0  0  0  0
   38.6123   18.3981    8.0610 C   0  0  0  0  0  0  0  0  0  0  0  0
   37.8118   18.0756    6.9849 C   0  0  0  0  0  0  0  0  0  0  0  0
   38.2237   17.3057    5.9104 C   0  0  0  0  0  0  0  0  0  0  0  0
   39.5303   16.8369    5.9367 C   0  0  0  0  0  0  0  0  0  0  0  0
   40.3690   17.1361    6.9965 C   0  0  0  0  0  0  0  0  0  0  0  0
   43.6126   15.8227    8.4348 C   0  0  2  0  0  0  0  0  0  0  0  0
   44.0769   15.7368    9.8789 C   0  0  0  0  0  0  0  0  0  0  0  0
   44.6611   16.6470    9.0022 C   0  0  0  0  0  0  0  0  0  0  0  0
 11  1  1  1
 12  1  1  0
  2  6  1  0
 13  2  1  0
  2 14  2  0
  3  4  2  0
 14  3  1  0
  5  4  1  0
  6  5  2  0
  6 15  1  0
  8  7  1  0
  8  9  2  0
 10  8  1  0
 11 10  1  0
 10 23  1  0
 11 24  1  0
 12 13  1  0
 12 18  1  0
 15 16  1  0
 15 17  2  0
 18 19  2  0
 18 23  1  0
 19 20  1  0
 20 21  2  0
 21 22  1  0
 22 23  2  0
 24 25  1  1
 24 26  1  0
 25 26  2  0
M  END
$$$$
