
     RDKit          3D

 26 29  0  0  0  0  0  0  0  0999 V2000
   41.9798   17.5750    9.3684 C   0  0  0  0  0  0  0  0  0  0  0  0
   42.4479   19.9588   10.7662 C   0  0  0  0  0  0  0  0  0  0  0  0
   44.5934   19.3498   11.7589 C   0  0  0  0  0  0  0  0  0  0  0  0
   44.1296   19.7023   13.0075 C   0  0  0  0  0  0  0  0  0  0  0  0
   42.8504   20.1730   13.1328 C   0  0  0  0  0  0  0  0  0  0  0  0
   42.0296   20.2953   12.0232 C   0  0  0  0  0  0  0  0  0  0  0  0
   40.9415   16.0440    4.7565 C   0  0  0  0  0  0  0  0  0  0  0  0
   41.6685   16.1922    6.0393 C   0  0  0  0  0  0  0  0  0  0  0  0
   42.8942   15.8255    5.9806 O   0  0  0  0  0  0  0  0  0  0  0  0
   41.1684   16.6760    7.2493 N   0  0  0  0  0  0  0  0  0  0  0  0
   41.6136   16.3383    8.5824 C   0  0  1  0  0  0  0  0  0  0  0  0
   41.2786   18.7713    8.9628 N   0  0  0  0  0  0  0  0  0  0  0  0
   41.6921   20.0690    9.5055 C   0  0  0  0  0  0  0  0  0  0  0  0
   43.7621   19.4806   10.6772 C   0  0  0  0  0  0  0  0  0  0  0  0
   40.6763   20.7710   12.2258 C   0  0  0  0  0  0  0  0  0  0  0  0
   40.1271   21.6063   11.2397 O   0  0  0  0  0  0  0  0  0  0  0  0
   39.9167   20.5325   13.1804 O   0  0  0  0  0  0  0  0  0  0  0  0
   40.1813   18.7049    8.0787 C   0  0  0  0  0  0  0  0  0  0  0  0
   39.1841   19.6969    8.0839 C   0  0  0  0  0  0  0  0  0  0  0  0
   38.1534   19.5541    7.1784 C   0  0  0  0  0  0  0  0  0  0  0  0
   38.0456   18.5069    6.2792 C   0  0  0  0  0  0  0  0  0  0  0  0
   39.0497   17.5483    6.3068 C   0  0  0  0  0  0  0  0  0  0  0  0
   40.1032   17.6515    7.1987 C   0  0  0  0  0  0  0  0  0  0  0  0
   42.7672   15.3800    8.6334 C   0  0  2  0  0  0  0  0  0  0  0  0
   44.0855   16.1265    8.7477 C   0  0  0  0  0  0  0  0  0  0  0  0
   43.8185   15.3306    7.6370 C   0  0  0  0  0  0  0  0  0  0  0  0
 11  1  1  6
 12  1  1  0
  2  6  1  0
 13  2  1  0
  2 14  2  0
  3  4  2  0
 14  3  1  0
  5  4  1  0
  6  5  2  0
  6 15  1  0
  8  7  1  0
  8  9  2  0
 10  8  1  0
 11 10  1  0
 10 23  1  0
 11 24  1  0
 12 13  1  0
 12 18  1  0
 15 16  1  0
 15 17  2  0
 18 19  2  0
 18 23  1  0
 19 20  1  0
 20 21  2  0
 21 22  1  0
 22 23  2  0
 24 25  1  1
 24 26  1  0
 25 26  2  0
M  END
$$$$
