
     RDKit          3D

 26 29  0  0  0  0  0  0  0  0999 V2000
   42.0120   17.3919    9.4259 C   0  0  0  0  0  0  0  0  0  0  0  0
   39.6061   19.1424   10.9316 C   0  0  0  0  0  0  0  0  0  0  0  0
   39.1643   17.7318   12.8744 C   0  0  0  0  0  0  0  0  0  0  0  0
   38.0662   18.4989   13.1970 C   0  0  0  0  0  0  0  0  0  0  0  0
   37.7444   19.5659   12.4023 C   0  0  0  0  0  0  0  0  0  0  0  0
   38.5086   19.8747   11.2884 C   0  0  0  0  0  0  0  0  0  0  0  0
   43.5666   17.7365    5.4790 C   0  0  0  0  0  0  0  0  0  0  0  0
   42.6961   16.6356    5.9543 C   0  0  0  0  0  0  0  0  0  0  0  0
   42.6845   15.6175    5.1773 O   0  0  0  0  0  0  0  0  0  0  0  0
   41.9262   16.6020    7.1182 N   0  0  0  0  0  0  0  0  0  0  0  0
   42.3708   16.2897    8.4576 C   0  0  1  0  0  0  0  0  0  0  0  0
   40.8460   18.1595    9.0537 N   0  0  0  0  0  0  0  0  0  0  0  0
   40.5176   19.3794    9.7976 C   0  0  0  0  0  0  0  0  0  0  0  0
   39.9041   18.0582   11.7679 C   0  0  0  0  0  0  0  0  0  0  0  0
   38.0985   20.9980   10.4707 C   0  0  0  0  0  0  0  0  0  0  0  0
   36.8547   21.5859   10.7518 O   0  0  0  0  0  0  0  0  0  0  0  0
   38.7164   21.5246    9.5294 O   0  0  0  0  0  0  0  0  0  0  0  0
   40.0009   17.7343    8.0072 C   0  0  0  0  0  0  0  0  0  0  0  0
   38.6468   18.1128    7.9686 C   0  0  0  0  0  0  0  0  0  0  0  0
   37.8989   17.6573    6.9028 C   0  0  0  0  0  0  0  0  0  0  0  0
   38.3966   16.8613    5.8852 C   0  0  0  0  0  0  0  0  0  0  0  0
   39.7375   16.5091    5.9608 C   0  0  0  0  0  0  0  0  0  0  0  0
   40.5259   16.9437    7.0124 C   0  0  0  0  0  0  0  0  0  0  0  0
   43.8390   16.0049    8.5796 C   0  0  2  0  0  0  0  0  0  0  0  0
   44.3746   16.4899    9.9161 C   0  0  0  0  0  0  0  0  0  0  0  0
   44.8499   17.0331    8.7256 C   0  0  0  0  0  0  0  0  0  0  0  0
 11  1  1  1
 12  1  1  0
  2  6  1  0
 13  2  1  0
  2 14  2  0
  3  4  2  0
 14  3  1  0
  5  4  1  0
  6  5  2  0
  6 15  1  0
  8  7  1  0
  8  9  2  0
 10  8  1  0
 11 10  1  0
 10 23  1  0
 11 24  1  0
 12 13  1  0
 12 18  1  0
 15 16  1  0
 15 17  2  0
 18 19  2  0
 18 23  1  0
 19 20  1  0
 20 21  2  0
 21 22  1  0
 22 23  2  0
 24 25  1  1
 24 26  1  0
 25 26  2  0
M  END
$$$$
