
     RDKit          3D

 26 29  0  0  0  0  0  0  0  0999 V2000
   40.9954   16.9513    9.6730 C   0  0  0  0  0  0  0  0  0  0  0  0
   39.6064   18.5918   11.4072 C   0  0  0  0  0  0  0  0  0  0  0  0
   39.6207   17.2976   13.4771 C   0  0  0  0  0  0  0  0  0  0  0  0
   40.3996   18.2572   14.0861 C   0  0  0  0  0  0  0  0  0  0  0  0
   40.7738   19.3622   13.3700 C   0  0  0  0  0  0  0  0  0  0  0  0
   40.3778   19.5183   12.0514 C   0  0  0  0  0  0  0  0  0  0  0  0
   43.7156   16.5137    5.7095 C   0  0  0  0  0  0  0  0  0  0  0  0
   42.8396   17.3294    6.5830 C   0  0  0  0  0  0  0  0  0  0  0  0
   43.1393   18.5746    6.5927 O   0  0  0  0  0  0  0  0  0  0  0  0
   41.7644   16.8905    7.3574 N   0  0  0  0  0  0  0  0  0  0  0  0
   41.8183   16.2217    8.6377 C   0  0  1  0  0  0  0  0  0  0  0  0
   39.8896   17.7087    9.1336 N   0  0  0  0  0  0  0  0  0  0  0  0
   39.1448   18.6200   10.0076 C   0  0  0  0  0  0  0  0  0  0  0  0
   39.2426   17.4752   12.1719 C   0  0  0  0  0  0  0  0  0  0  0  0
   40.7811   20.7240   11.3570 C   0  0  0  0  0  0  0  0  0  0  0  0
   41.9900   21.3234   11.7453 O   0  0  0  0  0  0  0  0  0  0  0  0
   40.1847   21.3141   10.4397 O   0  0  0  0  0  0  0  0  0  0  0  0
   39.4956   17.5589    7.7873 C   0  0  0  0  0  0  0  0  0  0  0  0
   38.1765   17.8321    7.3825 C   0  0  0  0  0  0  0  0  0  0  0  0
   37.8845   17.6664    6.0446 C   0  0  0  0  0  0  0  0  0  0  0  0
   38.8006   17.2529    5.0925 C   0  0  0  0  0  0  0  0  0  0  0  0
   40.0914   16.9925    5.5329 C   0  0  0  0  0  0  0  0  0  0  0  0
   40.4292   17.1456    6.8665 C   0  0  0  0  0  0  0  0  0  0  0  0
   43.2023   16.0207    9.1814 C   0  0  2  0  0  0  0  0  0  0  0  0
   43.3972   16.8056   10.4676 C   0  0  0  0  0  0  0  0  0  0  0  0
   44.1677   17.0896    9.3433 C   0  0  0  0  0  0  0  0  0  0  0  0
 11  1  1  1
 12  1  1  0
  2  6  1  0
 13  2  1  0
  2 14  2  0
  3  4  2  0
 14  3  1  0
  5  4  1  0
  6  5  2  0
  6 15  1  0
  8  7  1  0
  8  9  2  0
 10  8  1  0
 11 10  1  0
 10 23  1  0
 11 24  1  0
 12 13  1  0
 12 18  1  0
 15 16  1  0
 15 17  2  0
 18 19  2  0
 18 23  1  0
 19 20  1  0
 20 21  2  0
 21 22  1  0
 22 23  2  0
 24 25  1  1
 24 26  1  0
 25 26  2  0
M  END
$$$$
