
     RDKit          3D

 26 29  0  0  0  0  0  0  0  0999 V2000
   41.8540   17.9273    9.3098 C   0  0  0  0  0  0  0  0  0  0  0  0
   39.3778   19.8369   10.3078 C   0  0  0  0  0  0  0  0  0  0  0  0
   38.8833   18.7274   12.4254 C   0  0  0  0  0  0  0  0  0  0  0  0
   37.7519   19.4986   12.5793 C   0  0  0  0  0  0  0  0  0  0  0  0
   37.4397   20.4200   11.6163 C   0  0  0  0  0  0  0  0  0  0  0  0
   38.2463   20.5789   10.5010 C   0  0  0  0  0  0  0  0  0  0  0  0
   44.1831   17.5377    5.8462 C   0  0  0  0  0  0  0  0  0  0  0  0
   42.9936   16.6928    6.1052 C   0  0  0  0  0  0  0  0  0  0  0  0
   42.8346   15.7531    5.2497 O   0  0  0  0  0  0  0  0  0  0  0  0
   42.0744   16.8151    7.1484 N   0  0  0  0  0  0  0  0  0  0  0  0
   42.3334   16.7032    8.5661 C   0  0  1  0  0  0  0  0  0  0  0  0
   40.7528   18.6178    8.6790 N   0  0  0  0  0  0  0  0  0  0  0  0
   40.3343   19.9267    9.1898 C   0  0  0  0  0  0  0  0  0  0  0  0
   39.6648   18.9042   11.3135 C   0  0  0  0  0  0  0  0  0  0  0  0
   37.8456   21.5495    9.5029 C   0  0  0  0  0  0  0  0  0  0  0  0
   38.8478   22.0831    8.6768 O   0  0  0  0  0  0  0  0  0  0  0  0
   36.7037   21.9842    9.2741 O   0  0  0  0  0  0  0  0  0  0  0  0
   40.0535   18.0360    7.6008 C   0  0  0  0  0  0  0  0  0  0  0  0
   38.7189   18.3864    7.3278 C   0  0  0  0  0  0  0  0  0  0  0  0
   38.1182   17.7732    6.2479 C   0  0  0  0  0  0  0  0  0  0  0  0
   38.7437   16.8470    5.4306 C   0  0  0  0  0  0  0  0  0  0  0  0
   40.0603   16.5277    5.7344 C   0  0  0  0  0  0  0  0  0  0  0  0
   40.7028   17.1188    6.8087 C   0  0  0  0  0  0  0  0  0  0  0  0
   43.7704   16.4591    8.9227 C   0  0  2  0  0  0  0  0  0  0  0  0
   43.9301   16.2645   10.4210 C   0  0  0  0  0  0  0  0  0  0  0  0
   44.5483   17.3334    9.7777 C   0  0  0  0  0  0  0  0  0  0  0  0
 11  1  1  1
 12  1  1  0
  2  6  1  0
 13  2  1  0
  2 14  2  0
  3  4  2  0
 14  3  1  0
  5  4  1  0
  6  5  2  0
  6 15  1  0
  8  7  1  0
  8  9  2  0
 10  8  1  0
 11 10  1  0
 10 23  1  0
 11 24  1  0
 12 13  1  0
 12 18  1  0
 15 16  1  0
 15 17  2  0
 18 19  2  0
 18 23  1  0
 19 20  1  0
 20 21  2  0
 21 22  1  0
 22 23  2  0
 24 25  1  1
 24 26  1  0
 25 26  2  0
M  END
$$$$
