
     RDKit          3D

 26 29  0  0  0  0  0  0  0  0999 V2000
   41.7313   17.2528    9.2324 C   0  0  0  0  0  0  0  0  0  0  0  0
   40.2218   19.1494   11.3461 C   0  0  0  0  0  0  0  0  0  0  0  0
   40.3686   17.9175   13.4486 C   0  0  0  0  0  0  0  0  0  0  0  0
   39.1427   18.4114   13.8378 C   0  0  0  0  0  0  0  0  0  0  0  0
   38.4697   19.2569   12.9975 C   0  0  0  0  0  0  0  0  0  0  0  0
   39.0091   19.6142   11.7722 C   0  0  0  0  0  0  0  0  0  0  0  0
   41.8443   17.8445    4.4158 C   0  0  0  0  0  0  0  0  0  0  0  0
   42.1457   17.0700    5.6426 C   0  0  0  0  0  0  0  0  0  0  0  0
   43.2222   16.3806    5.5637 O   0  0  0  0  0  0  0  0  0  0  0  0
   41.4042   17.0262    6.8244 N   0  0  0  0  0  0  0  0  0  0  0  0
   41.7332   16.3219    8.0430 C   0  0  1  0  0  0  0  0  0  0  0  0
   40.8566   18.3948    9.0973 N   0  0  0  0  0  0  0  0  0  0  0  0
   40.9194   19.4731   10.0886 C   0  0  0  0  0  0  0  0  0  0  0  0
   40.8806   18.2863   12.2320 C   0  0  0  0  0  0  0  0  0  0  0  0
   38.2342   20.4883   10.9154 C   0  0  0  0  0  0  0  0  0  0  0  0
   38.8631   21.6460   10.4298 O   0  0  0  0  0  0  0  0  0  0  0  0
   37.0567   20.3469   10.5430 O   0  0  0  0  0  0  0  0  0  0  0  0
   39.9205   18.4714    8.0447 C   0  0  0  0  0  0  0  0  0  0  0  0
   38.7479   19.2378    8.1707 C   0  0  0  0  0  0  0  0  0  0  0  0
   37.8949   19.2611    7.0869 C   0  0  0  0  0  0  0  0  0  0  0  0
   38.1230   18.5839    5.9011 C   0  0  0  0  0  0  0  0  0  0  0  0
   39.2912   17.8381    5.8174 C   0  0  0  0  0  0  0  0  0  0  0  0
   40.1762   17.7862    6.8805 C   0  0  0  0  0  0  0  0  0  0  0  0
   43.0433   15.5910    8.0097 C   0  0  2  0  0  0  0  0  0  0  0  0
   43.8462   15.8628    9.2705 C   0  0  0  0  0  0  0  0  0  0  0  0
   44.3342   16.2497    8.0254 C   0  0  0  0  0  0  0  0  0  0  0  0
 11  1  1  1
 12  1  1  0
  2  6  1  0
 13  2  1  0
  2 14  2  0
  3  4  2  0
 14  3  1  0
  5  4  1  0
  6  5  2  0
  6 15  1  0
  8  7  1  0
  8  9  2  0
 10  8  1  0
 11 10  1  0
 10 23  1  0
 11 24  1  0
 12 13  1  0
 12 18  1  0
 15 16  1  0
 15 17  2  0
 18 19  2  0
 18 23  1  0
 19 20  1  0
 20 21  2  0
 21 22  1  0
 22 23  2  0
 24 25  1  1
 24 26  1  0
 25 26  2  0
M  END
$$$$
