
     RDKit          3D

 26 29  0  0  0  0  0  0  0  0999 V2000
   41.7806   17.3287    9.2371 C   0  0  0  0  0  0  0  0  0  0  0  0
   40.5835   19.3241   11.2691 C   0  0  0  0  0  0  0  0  0  0  0  0
   41.3341   18.4333   13.4145 C   0  0  0  0  0  0  0  0  0  0  0  0
   40.1018   18.6999   13.9702 C   0  0  0  0  0  0  0  0  0  0  0  0
   39.1298   19.2666   13.1906 C   0  0  0  0  0  0  0  0  0  0  0  0
   39.3764   19.5700   11.8612 C   0  0  0  0  0  0  0  0  0  0  0  0
   41.9473   15.9545    4.5008 C   0  0  0  0  0  0  0  0  0  0  0  0
   42.2032   16.8137    5.6807 C   0  0  0  0  0  0  0  0  0  0  0  0
   43.2345   17.5630    5.5568 O   0  0  0  0  0  0  0  0  0  0  0  0
   41.4582   16.8846    6.8589 N   0  0  0  0  0  0  0  0  0  0  0  0
   41.7780   16.2925    8.1382 C   0  0  1  0  0  0  0  0  0  0  0  0
   40.9159   18.4605    8.9946 N   0  0  0  0  0  0  0  0  0  0  0  0
   40.9850   19.6247    9.8830 C   0  0  0  0  0  0  0  0  0  0  0  0
   41.5530   18.7432   12.0976 C   0  0  0  0  0  0  0  0  0  0  0  0
   38.2974   20.1407   11.0811 C   0  0  0  0  0  0  0  0  0  0  0  0
   37.0042   20.0885   11.6257 O   0  0  0  0  0  0  0  0  0  0  0  0
   38.3649   20.6844    9.9652 O   0  0  0  0  0  0  0  0  0  0  0  0
   39.9833   18.4476    7.9362 C   0  0  0  0  0  0  0  0  0  0  0  0
   38.8167   19.2318    7.9873 C   0  0  0  0  0  0  0  0  0  0  0  0
   37.9669   19.1623    6.9029 C   0  0  0  0  0  0  0  0  0  0  0  0
   38.1926   18.3772    5.7851 C   0  0  0  0  0  0  0  0  0  0  0  0
   39.3547   17.6176    5.7742 C   0  0  0  0  0  0  0  0  0  0  0  0
   40.2364   17.6564    6.8407 C   0  0  0  0  0  0  0  0  0  0  0  0
   43.0820   15.5512    8.1766 C   0  0  2  0  0  0  0  0  0  0  0  0
   42.8718   14.1092    8.6065 C   0  0  0  0  0  0  0  0  0  0  0  0
   43.6442   14.9713    9.3801 C   0  0  0  0  0  0  0  0  0  0  0  0
 11  1  1  1
 12  1  1  0
  2  6  1  0
 13  2  1  0
  2 14  2  0
  3  4  2  0
 14  3  1  0
  5  4  1  0
  6  5  2  0
  6 15  1  0
  8  7  1  0
  8  9  2  0
 10  8  1  0
 11 10  1  0
 10 23  1  0
 11 24  1  0
 12 13  1  0
 12 18  1  0
 15 16  1  0
 15 17  2  0
 18 19  2  0
 18 23  1  0
 19 20  1  0
 20 21  2  0
 21 22  1  0
 22 23  2  0
 24 25  1  6
 24 26  1  0
 25 26  2  0
M  END
$$$$
