
     RDKit          3D

 26 29  0  0  0  0  0  0  0  0999 V2000
   41.8406   17.2993    9.7760 C   0  0  0  0  0  0  0  0  0  0  0  0
   40.0624   19.2424   11.6960 C   0  0  0  0  0  0  0  0  0  0  0  0
   37.7857   19.1267   12.5694 C   0  0  0  0  0  0  0  0  0  0  0  0
   38.2651   18.7398   13.8018 C   0  0  0  0  0  0  0  0  0  0  0  0
   39.6161   18.6074   13.9777 C   0  0  0  0  0  0  0  0  0  0  0  0
   40.4934   18.8576   12.9347 C   0  0  0  0  0  0  0  0  0  0  0  0
   42.3333   17.9641    5.1094 C   0  0  0  0  0  0  0  0  0  0  0  0
   42.3961   16.9794    6.2149 C   0  0  0  0  0  0  0  0  0  0  0  0
   43.2875   16.0751    6.0476 O   0  0  0  0  0  0  0  0  0  0  0  0
   41.6150   16.9479    7.3713 N   0  0  0  0  0  0  0  0  0  0  0  0
   41.9357   16.3177    8.6320 C   0  0  1  0  0  0  0  0  0  0  0  0
   40.9123   18.3847    9.5578 N   0  0  0  0  0  0  0  0  0  0  0  0
   40.8813   19.5079   10.4994 C   0  0  0  0  0  0  0  0  0  0  0  0
   38.6739   19.3678   11.5539 C   0  0  0  0  0  0  0  0  0  0  0  0
   41.9131   18.7292   13.1927 C   0  0  0  0  0  0  0  0  0  0  0  0
   42.3405   17.6146   13.9321 O   0  0  0  0  0  0  0  0  0  0  0  0
   42.8271   19.4934   12.8379 O   0  0  0  0  0  0  0  0  0  0  0  0
   40.0128   18.3629    8.4712 C   0  0  0  0  0  0  0  0  0  0  0  0
   38.7973   19.0690    8.5211 C   0  0  0  0  0  0  0  0  0  0  0  0
   37.9848   18.9972    7.4087 C   0  0  0  0  0  0  0  0  0  0  0  0
   38.2920   18.2812    6.2642 C   0  0  0  0  0  0  0  0  0  0  0  0
   39.5004   17.5974    6.2555 C   0  0  0  0  0  0  0  0  0  0  0  0
   40.3471   17.6415    7.3496 C   0  0  0  0  0  0  0  0  0  0  0  0
   43.2831   15.6588    8.6778 C   0  0  2  0  0  0  0  0  0  0  0  0
   43.9984   15.9807    9.9789 C   0  0  0  0  0  0  0  0  0  0  0  0
   44.5338   16.3866    8.7595 C   0  0  0  0  0  0  0  0  0  0  0  0
 11  1  1  1
 12  1  1  0
  2  6  1  0
 13  2  1  0
  2 14  2  0
  3  4  2  0
 14  3  1  0
  5  4  1  0
  6  5  2  0
  6 15  1  0
  8  7  1  0
  8  9  2  0
 10  8  1  0
 11 10  1  0
 10 23  1  0
 11 24  1  0
 12 13  1  0
 12 18  1  0
 15 16  1  0
 15 17  2  0
 18 19  2  0
 18 23  1  0
 19 20  1  0
 20 21  2  0
 21 22  1  0
 22 23  2  0
 24 25  1  1
 24 26  1  0
 25 26  2  0
M  END
$$$$
