
     RDKit          3D

 26 29  0  0  0  0  0  0  0  0999 V2000
   41.7394   18.1139    8.7329 C   0  0  0  0  0  0  0  0  0  0  0  0
   39.6269   20.9035    9.3423 C   0  0  0  0  0  0  0  0  0  0  0  0
   37.4708   22.0478    9.3062 C   0  0  0  0  0  0  0  0  0  0  0  0
   37.3506   21.8904   10.6697 C   0  0  0  0  0  0  0  0  0  0  0  0
   38.3489   21.2527   11.3556 C   0  0  0  0  0  0  0  0  0  0  0  0
   39.4663   20.7706   10.6931 C   0  0  0  0  0  0  0  0  0  0  0  0
   40.7729   15.7558    4.5139 C   0  0  0  0  0  0  0  0  0  0  0  0
   41.5250   16.0783    5.7493 C   0  0  0  0  0  0  0  0  0  0  0  0
   42.7736   15.8025    5.6775 O   0  0  0  0  0  0  0  0  0  0  0  0
   41.0256   16.6335    6.9285 N   0  0  0  0  0  0  0  0  0  0  0  0
   41.6790   16.6959    8.2164 C   0  0  1  0  0  0  0  0  0  0  0  0
   40.6803   18.9714    8.2528 N   0  0  0  0  0  0  0  0  0  0  0  0
   40.7438   20.4124    8.5151 C   0  0  0  0  0  0  0  0  0  0  0  0
   38.5855   21.5616    8.6744 C   0  0  0  0  0  0  0  0  0  0  0  0
   40.5019   20.1320   11.4795 C   0  0  0  0  0  0  0  0  0  0  0  0
   40.1017   19.4035   12.6112 O   0  0  0  0  0  0  0  0  0  0  0  0
   41.7290   20.1429   11.2812 O   0  0  0  0  0  0  0  0  0  0  0  0
   39.5702   18.4379    7.5648 C   0  0  0  0  0  0  0  0  0  0  0  0
   38.3304   19.1021    7.5622 C   0  0  0  0  0  0  0  0  0  0  0  0
   37.3040   18.5107    6.8554 C   0  0  0  0  0  0  0  0  0  0  0  0
   37.4224   17.3195    6.1597 C   0  0  0  0  0  0  0  0  0  0  0  0
   38.6621   16.6950    6.1879 C   0  0  0  0  0  0  0  0  0  0  0  0
   39.7205   17.2528    6.8844 C   0  0  0  0  0  0  0  0  0  0  0  0
   43.0631   16.1170    8.2451 C   0  0  2  0  0  0  0  0  0  0  0  0
   43.5442   15.9366    9.6748 C   0  0  0  0  0  0  0  0  0  0  0  0
   44.2105   16.7995    8.8091 C   0  0  0  0  0  0  0  0  0  0  0  0
 11  1  1  6
 12  1  1  0
  2  6  1  0
 13  2  1  0
  2 14  2  0
  3  4  2  0
 14  3  1  0
  5  4  1  0
  6  5  2  0
  6 15  1  0
  8  7  1  0
  8  9  2  0
 10  8  1  0
 11 10  1  0
 10 23  1  0
 11 24  1  0
 12 13  1  0
 12 18  1  0
 15 16  1  0
 15 17  2  0
 18 19  2  0
 18 23  1  0
 19 20  1  0
 20 21  2  0
 21 22  1  0
 22 23  2  0
 24 25  1  1
 24 26  1  0
 25 26  2  0
M  END
$$$$
