
     RDKit          3D

 33 35  0  0  0  0  0  0  0  0999 V2000
  -27.6046   19.2871  -54.8679 N   0  0  0  0  0  0  0  0  0  0  0  0
  -27.5124   19.4591  -47.1526 N   0  0  0  0  0  0  0  0  0  0  0  0
  -27.6258   18.5554  -52.3745 C   0  0  0  0  0  0  0  0  0  0  0  0
  -29.0562   17.9082  -50.5804 C   0  0  0  0  0  0  0  0  0  0  0  0
  -28.6860   17.8082  -51.9339 C   0  0  0  0  0  0  0  0  0  0  0  0
  -26.9447   19.4013  -51.4635 C   0  0  0  0  0  0  0  0  0  0  0  0
  -27.3113   19.4869  -50.1774 C   0  0  0  0  0  0  0  0  0  0  0  0
  -29.5753   16.9662  -52.7449 C   0  0  0  0  0  0  0  0  0  0  0  0
  -26.7939   23.2675  -49.1543 C   0  0  1  0  0  0  0  0  0  0  0  0
  -27.7202   22.9961  -50.2501 C   0  0  0  0  0  0  0  0  0  0  0  0
  -24.9240   24.6951  -48.3125 C   0  0  0  0  0  0  0  0  0  0  0  0
  -28.5701   22.3566  -52.2190 C   0  0  0  0  0  0  0  0  0  0  0  0
  -29.5511   22.8745  -51.3911 C   0  0  0  0  0  0  0  0  0  0  0  0
  -31.0091   23.0059  -51.7364 C   0  0  0  0  0  0  0  0  0  0  0  0
  -27.1952   18.5955  -53.7477 C   0  0  0  0  0  0  0  0  0  0  0  0
  -27.2516   20.4980  -47.8595 C   0  0  0  0  0  0  0  0  0  0  0  0
  -27.5242   21.7689  -47.2364 C   0  0  0  0  0  0  0  0  0  0  0  0
  -26.0492   24.5950  -49.3169 C   0  0  2  0  0  0  0  0  0  0  0  0
  -26.9398   25.7874  -49.2218 C   0  0  0  0  0  0  0  0  0  0  0  0
  -25.3791   24.6403  -50.6980 C   0  0  0  0  0  0  0  0  0  0  0  0
  -27.4141   22.4425  -51.4759 C   0  0  0  0  0  0  0  0  0  0  0  0
  -28.6309   20.3679  -54.7085 C   0  0  0  0  0  0  0  0  0  0  0  0
  -27.0924   19.1838  -56.1875 C   0  0  0  0  0  0  0  0  0  0  0  0
  -28.3932   18.7229  -49.7159 C   0  0  0  0  0  0  0  0  0  0  0  0
  -26.7150   20.3117  -49.1940 N   0  0  0  0  0  0  0  0  0  0  0  0
  -27.9990   21.7171  -46.0453 N   0  0  0  0  0  0  0  0  0  0  0  0
  -27.2863   23.0692  -47.8332 N   0  0  0  0  0  0  0  0  0  0  0  0
  -26.1898   17.7788  -53.9816 O   0  0  0  0  0  0  0  0  0  0  0  0
  -25.8765   20.1429  -51.9444 O   0  0  0  0  0  0  0  0  0  0  0  0
  -29.5367   19.6242  -45.4248 O   0  0  0  0  0  0  0  0  0  0  0  0
  -27.2285   19.6757  -44.5075 O   0  0  0  0  0  0  0  0  0  0  0  0
  -28.9993   23.2286  -50.2631 O   0  0  0  0  0  0  0  0  0  0  0  0
  -28.1207   20.0444  -45.6562 S   0  0  1  0  0  6  0  0  0  0  0  0
 15  1  1  0
  1 22  1  0
  1 23  1  0
 16  2  2  0
 33  2  1  6
  3  5  2  0
  6  3  1  0
  3 15  1  0
  4  5  1  0
 24  4  2  0
  5  8  1  0
  7  6  2  0
  6 29  1  0
  7 24  1  0
 25  7  1  0
  9 10  1  0
  9 18  1  0
  9 27  1  1
 10 21  2  0
 10 32  1  0
 18 11  1  1
 13 12  2  0
 21 12  1  0
 13 14  1  0
 32 13  1  0
 15 28  2  0
 17 16  1  0
 16 25  1  0
 17 26  2  0
 17 27  1  0
 18 19  1  0
 18 20  1  0
 26 33  1  0
 33 30  2  0
 33 31  2  0
M  END
$$$$
