
     RDKit          3D

 33 35  0  0  0  0  0  0  0  0999 V2000
  -21.5707   24.3739  -50.7935 N   0  0  0  0  0  0  0  0  0  0  0  0
  -27.4083   21.2866  -48.3254 N   0  0  0  0  0  0  0  0  0  0  0  0
  -23.9903   24.2264  -49.8570 C   0  0  0  0  0  0  0  0  0  0  0  0
  -26.1213   25.2184  -49.4590 C   0  0  0  0  0  0  0  0  0  0  0  0
  -24.7183   25.3208  -49.4715 C   0  0  0  0  0  0  0  0  0  0  0  0
  -24.6660   23.0352  -50.2227 C   0  0  0  0  0  0  0  0  0  0  0  0
  -26.0034   22.9532  -50.2033 C   0  0  0  0  0  0  0  0  0  0  0  0
  -24.1990   26.5950  -48.9574 C   0  0  0  0  0  0  0  0  0  0  0  0
  -30.2215   19.0338  -51.5693 C   0  0  1  0  0  0  0  0  0  0  0  0
  -31.1011   19.5020  -52.6369 C   0  0  0  0  0  0  0  0  0  0  0  0
  -28.8009   17.3500  -52.7482 C   0  0  0  0  0  0  0  0  0  0  0  0
  -31.8646   20.2185  -54.6147 C   0  0  0  0  0  0  0  0  0  0  0  0
  -32.8858   20.1218  -53.6854 C   0  0  0  0  0  0  0  0  0  0  0  0
  -34.3326   20.4475  -53.9366 C   0  0  0  0  0  0  0  0  0  0  0  0
  -22.5513   24.1815  -49.8436 C   0  0  0  0  0  0  0  0  0  0  0  0
  -27.6098   21.1015  -49.5793 C   0  0  0  0  0  0  0  0  0  0  0  0
  -28.6725   20.1887  -49.9187 C   0  0  0  0  0  0  0  0  0  0  0  0
  -29.8671   17.5500  -51.6954 C   0  0  2  0  0  0  0  0  0  0  0  0
  -31.0470   16.6828  -51.9780 C   0  0  0  0  0  0  0  0  0  0  0  0
  -29.2489   17.0574  -50.3788 C   0  0  0  0  0  0  0  0  0  0  0  0
  -30.7387   19.8204  -53.9292 C   0  0  0  0  0  0  0  0  0  0  0  0
  -21.9652   24.9248  -52.1305 C   0  0  0  0  0  0  0  0  0  0  0  0
  -20.1690   24.2137  -50.6391 C   0  0  0  0  0  0  0  0  0  0  0  0
  -26.7577   24.0696  -49.8137 C   0  0  0  0  0  0  0  0  0  0  0  0
  -26.7731   21.8107  -50.5282 N   0  0  0  0  0  0  0  0  0  0  0  0
  -29.2956   19.6629  -48.9278 N   0  0  0  0  0  0  0  0  0  0  0  0
  -29.0933   19.8468  -51.2640 N   0  0  0  0  0  0  0  0  0  0  0  0
  -22.0705   23.8793  -48.6562 O   0  0  0  0  0  0  0  0  0  0  0  0
  -23.8970   21.9474  -50.6074 O   0  0  0  0  0  0  0  0  0  0  0  0
  -27.9079   19.2446  -46.6852 O   0  0  0  0  0  0  0  0  0  0  0  0
  -29.5264   21.1291  -46.7091 O   0  0  0  0  0  0  0  0  0  0  0  0
  -32.3833   19.7011  -52.5571 O   0  0  0  0  0  0  0  0  0  0  0  0
  -28.5605   20.3068  -47.5104 S   0  0  1  0  0  6  0  0  0  0  0  0
 15  1  1  0
  1 22  1  0
  1 23  1  0
 16  2  2  0
 33  2  1  6
  3  5  2  0
  6  3  1  0
  3 15  1  0
  4  5  1  0
 24  4  2  0
  5  8  1  0
  7  6  2  0
  6 29  1  0
  7 24  1  0
 25  7  1  0
  9 10  1  0
  9 18  1  0
  9 27  1  6
 10 21  2  0
 10 32  1  0
 18 11  1  6
 13 12  2  0
 21 12  1  0
 13 14  1  0
 32 13  1  0
 15 28  2  0
 17 16  1  0
 16 25  1  0
 17 26  2  0
 17 27  1  0
 18 19  1  0
 18 20  1  0
 26 33  1  0
 33 30  2  0
 33 31  2  0
M  END
$$$$
