
     RDKit          3D

 33 35  0  0  0  0  0  0  0  0999 V2000
  -32.5920   26.6214  -47.7538 N   0  0  0  0  0  0  0  0  0  0  0  0
  -28.5245   20.4296  -47.0117 N   0  0  0  0  0  0  0  0  0  0  0  0
  -32.0137   24.1455  -47.2167 C   0  0  0  0  0  0  0  0  0  0  0  0
  -31.7213   22.3271  -45.7028 C   0  0  0  0  0  0  0  0  0  0  0  0
  -32.5421   23.3291  -46.2520 C   0  0  0  0  0  0  0  0  0  0  0  0
  -30.6686   23.9607  -47.6240 C   0  0  0  0  0  0  0  0  0  0  0  0
  -29.8991   23.0028  -47.0892 C   0  0  0  0  0  0  0  0  0  0  0  0
  -33.8674   23.4364  -45.6280 C   0  0  0  0  0  0  0  0  0  0  0  0
  -25.3661   21.6997  -50.4493 C   0  0  1  0  0  0  0  0  0  0  0  0
  -26.0411   21.1017  -51.5980 C   0  0  0  0  0  0  0  0  0  0  0  0
  -23.5050   22.3486  -51.9850 C   0  0  0  0  0  0  0  0  0  0  0  0
  -27.3569   20.8007  -53.3828 C   0  0  0  0  0  0  0  0  0  0  0  0
  -26.6342   19.6568  -53.0910 C   0  0  0  0  0  0  0  0  0  0  0  0
  -26.6992   18.3614  -53.8525 C   0  0  0  0  0  0  0  0  0  0  0  0
  -32.7264   25.2502  -47.8036 C   0  0  0  0  0  0  0  0  0  0  0  0
  -28.0015   21.4218  -47.6355 C   0  0  0  0  0  0  0  0  0  0  0  0
  -26.9066   21.1050  -48.5178 C   0  0  0  0  0  0  0  0  0  0  0  0
  -24.3838   22.8057  -50.8433 C   0  0  2  0  0  0  0  0  0  0  0  0
  -23.5497   23.2880  -49.7050 C   0  0  0  0  0  0  0  0  0  0  0  0
  -25.1632   24.0164  -51.3774 C   0  0  0  0  0  0  0  0  0  0  0  0
  -26.9660   21.7072  -52.4230 C   0  0  0  0  0  0  0  0  0  0  0  0
  -33.5210   27.4636  -48.5751 C   0  0  0  0  0  0  0  0  0  0  0  0
  -31.7296   27.3796  -46.9197 C   0  0  0  0  0  0  0  0  0  0  0  0
  -30.4322   22.1593  -46.1035 C   0  0  0  0  0  0  0  0  0  0  0  0
  -28.5440   22.7475  -47.4081 N   0  0  0  0  0  0  0  0  0  0  0  0
  -26.5775   19.8662  -48.5779 N   0  0  0  0  0  0  0  0  0  0  0  0
  -26.1825   22.0565  -49.3388 N   0  0  0  0  0  0  0  0  0  0  0  0
  -33.7387   24.8554  -48.5465 O   0  0  0  0  0  0  0  0  0  0  0  0
  -30.1673   24.8054  -48.6025 O   0  0  0  0  0  0  0  0  0  0  0  0
  -26.9231   18.3943  -46.3770 O   0  0  0  0  0  0  0  0  0  0  0  0
  -28.5208   18.0656  -48.2508 O   0  0  0  0  0  0  0  0  0  0  0  0
  -25.8884   19.8910  -52.0463 O   0  0  0  0  0  0  0  0  0  0  0  0
  -27.6489   19.0392  -47.5138 S   0  0  1  0  0  6  0  0  0  0  0  0
 15  1  1  0
  1 22  1  0
  1 23  1  0
 16  2  2  0
 33  2  1  1
  3  5  2  0
  6  3  1  0
  3 15  1  0
  4  5  1  0
 24  4  2  0
  5  8  1  0
  7  6  2  0
  6 29  1  0
  7 24  1  0
 25  7  1  0
  9 10  1  0
  9 18  1  0
  9 27  1  1
 10 21  2  0
 10 32  1  0
 18 11  1  6
 13 12  2  0
 21 12  1  0
 13 14  1  0
 32 13  1  0
 15 28  2  0
 17 16  1  0
 16 25  1  0
 17 26  2  0
 17 27  1  0
 18 19  1  0
 18 20  1  0
 26 33  1  0
 33 30  2  0
 33 31  2  0
M  END
$$$$
