
     RDKit          3D

 33 35  0  0  0  0  0  0  0  0999 V2000
  -32.2849   17.2842  -48.9179 N   0  0  0  0  0  0  0  0  0  0  0  0
  -26.7123   21.1197  -46.9771 N   0  0  0  0  0  0  0  0  0  0  0  0
  -30.9438   19.1061  -47.6392 C   0  0  0  0  0  0  0  0  0  0  0  0
  -31.1141   21.2089  -46.5289 C   0  0  0  0  0  0  0  0  0  0  0  0
  -31.6033   19.9078  -46.7454 C   0  0  0  0  0  0  0  0  0  0  0  0
  -29.8036   19.6088  -48.3150 C   0  0  0  0  0  0  0  0  0  0  0  0
  -29.3516   20.8517  -48.0990 C   0  0  0  0  0  0  0  0  0  0  0  0
  -32.8544   19.6051  -46.0381 C   0  0  0  0  0  0  0  0  0  0  0  0
  -24.7325   22.8782  -50.9858 C   0  0  1  0  0  0  0  0  0  0  0  0
  -24.5913   22.8311  -52.4386 C   0  0  0  0  0  0  0  0  0  0  0  0
  -24.7418   24.3219  -48.9465 C   0  0  0  0  0  0  0  0  0  0  0  0
  -23.7186   22.7617  -54.4981 C   0  0  0  0  0  0  0  0  0  0  0  0
  -25.1022   22.7652  -54.5369 C   0  0  0  0  0  0  0  0  0  0  0  0
  -25.9436   22.7279  -55.7831 C   0  0  0  0  0  0  0  0  0  0  0  0
  -31.3854   17.7843  -48.0006 C   0  0  0  0  0  0  0  0  0  0  0  0
  -26.8857   21.4026  -48.2169 C   0  0  0  0  0  0  0  0  0  0  0  0
  -25.6877   21.6406  -48.9824 C   0  0  0  0  0  0  0  0  0  0  0  0
  -24.9078   24.3010  -50.4489 C   0  0  2  0  0  0  0  0  0  0  0  0
  -26.2059   24.9234  -50.8381 C   0  0  0  0  0  0  0  0  0  0  0  0
  -23.7918   25.1986  -51.0031 C   0  0  0  0  0  0  0  0  0  0  0  0
  -23.4135   22.8039  -53.1560 C   0  0  0  0  0  0  0  0  0  0  0  0
  -32.9308   18.2343  -49.8808 C   0  0  0  0  0  0  0  0  0  0  0  0
  -32.6191   15.9253  -49.1544 C   0  0  0  0  0  0  0  0  0  0  0  0
  -30.0178   21.6789  -47.1829 C   0  0  0  0  0  0  0  0  0  0  0  0
  -28.2400   21.4561  -48.7330 N   0  0  0  0  0  0  0  0  0  0  0  0
  -24.5831   21.5444  -48.3364 N   0  0  0  0  0  0  0  0  0  0  0  0
  -25.6392   21.9510  -50.3983 N   0  0  0  0  0  0  0  0  0  0  0  0
  -30.8015   16.8475  -47.2836 O   0  0  0  0  0  0  0  0  0  0  0  0
  -29.1615   18.7695  -49.2125 O   0  0  0  0  0  0  0  0  0  0  0  0
  -24.6098   22.2077  -45.7500 O   0  0  0  0  0  0  0  0  0  0  0  0
  -24.4901   19.7935  -46.3236 O   0  0  0  0  0  0  0  0  0  0  0  0
  -25.5528   22.8059  -53.3131 O   0  0  0  0  0  0  0  0  0  0  0  0
  -25.0139   21.1430  -46.7186 S   0  0  1  0  0  6  0  0  0  0  0  0
 15  1  1  0
  1 22  1  0
  1 23  1  0
 16  2  2  0
 33  2  1  6
  3  5  2  0
  6  3  1  0
  3 15  1  0
  4  5  1  0
 24  4  2  0
  5  8  1  0
  7  6  2  0
  6 29  1  0
  7 24  1  0
 25  7  1  0
  9 10  1  0
  9 18  1  0
  9 27  1  6
 10 21  2  0
 10 32  1  0
 18 11  1  1
 13 12  2  0
 21 12  1  0
 13 14  1  0
 32 13  1  0
 15 28  2  0
 17 16  1  0
 16 25  1  0
 17 26  2  0
 17 27  1  0
 18 19  1  0
 18 20  1  0
 26 33  1  0
 33 30  2  0
 33 31  2  0
M  END
$$$$
