
     RDKit          3D

 33 35  0  0  0  0  0  0  0  0999 V2000
  -24.5952   23.7136  -52.5352 N   0  0  0  0  0  0  0  0  0  0  0  0
  -28.4702   18.4377  -49.0543 N   0  0  0  0  0  0  0  0  0  0  0  0
  -26.0340   21.5636  -52.2888 C   0  0  0  0  0  0  0  0  0  0  0  0
  -26.7410   19.2868  -52.3015 C   0  0  0  0  0  0  0  0  0  0  0  0
  -26.1865   20.3891  -52.9772 C   0  0  0  0  0  0  0  0  0  0  0  0
  -26.4402   21.6327  -50.9325 C   0  0  0  0  0  0  0  0  0  0  0  0
  -26.9690   20.5739  -50.3038 C   0  0  0  0  0  0  0  0  0  0  0  0
  -25.9288   20.1580  -54.4046 C   0  0  0  0  0  0  0  0  0  0  0  0
  -30.4394   21.4439  -45.8567 C   0  0  1  0  0  0  0  0  0  0  0  0
  -30.5620   21.2890  -44.4097 C   0  0  0  0  0  0  0  0  0  0  0  0
  -32.0822   23.3217  -45.7227 C   0  0  0  0  0  0  0  0  0  0  0  0
  -31.3718   20.8513  -42.3700 C   0  0  0  0  0  0  0  0  0  0  0  0
  -30.0628   21.2967  -42.3076 C   0  0  0  0  0  0  0  0  0  0  0  0
  -29.2574   21.4757  -41.0499 C   0  0  0  0  0  0  0  0  0  0  0  0
  -25.5469   22.7797  -52.8860 C   0  0  0  0  0  0  0  0  0  0  0  0
  -28.3678   19.5667  -48.4525 C   0  0  0  0  0  0  0  0  0  0  0  0
  -29.2201   19.7483  -47.3044 C   0  0  0  0  0  0  0  0  0  0  0  0
  -30.7818   22.8564  -46.3371 C   0  0  2  0  0  0  0  0  0  0  0  0
  -30.8345   22.9786  -47.8225 C   0  0  0  0  0  0  0  0  0  0  0  0
  -29.7119   23.8397  -45.8403 C   0  0  0  0  0  0  0  0  0  0  0  0
  -31.6707   20.8534  -43.7141 C   0  0  0  0  0  0  0  0  0  0  0  0
  -23.3978   23.2597  -51.7560 C   0  0  0  0  0  0  0  0  0  0  0  0
  -24.5386   25.0801  -52.9140 C   0  0  0  0  0  0  0  0  0  0  0  0
  -27.1256   19.3659  -50.9990 C   0  0  0  0  0  0  0  0  0  0  0  0
  -27.4241   20.5420  -48.9641 N   0  0  0  0  0  0  0  0  0  0  0  0
  -29.9865   18.7605  -47.0152 N   0  0  0  0  0  0  0  0  0  0  0  0
  -29.2580   20.9270  -46.4600 N   0  0  0  0  0  0  0  0  0  0  0  0
  -26.1585   23.0627  -54.0166 O   0  0  0  0  0  0  0  0  0  0  0  0
  -26.2711   22.8374  -50.2673 O   0  0  0  0  0  0  0  0  0  0  0  0
  -30.8556   17.2464  -49.0356 O   0  0  0  0  0  0  0  0  0  0  0  0
  -29.0852   16.3090  -47.5663 O   0  0  0  0  0  0  0  0  0  0  0  0
  -29.6458   21.5346  -43.5208 O   0  0  0  0  0  0  0  0  0  0  0  0
  -29.6588   17.5466  -48.1913 S   0  0  1  0  0  6  0  0  0  0  0  0
 15  1  1  0
  1 22  1  0
  1 23  1  0
 16  2  2  0
 33  2  1  6
  3  5  2  0
  6  3  1  0
  3 15  1  0
  4  5  1  0
 24  4  2  0
  5  8  1  0
  7  6  2  0
  6 29  1  0
  7 24  1  0
 25  7  1  0
  9 10  1  0
  9 18  1  0
  9 27  1  1
 10 21  2  0
 10 32  1  0
 18 11  1  1
 13 12  2  0
 21 12  1  0
 13 14  1  0
 32 13  1  0
 15 28  2  0
 17 16  1  0
 16 25  1  0
 17 26  2  0
 17 27  1  0
 18 19  1  0
 18 20  1  0
 26 33  1  0
 33 30  2  0
 33 31  2  0
M  END
$$$$
