
     RDKit          3D

 33 35  0  0  0  0  0  0  0  0999 V2000
  -26.0516   22.6161  -54.2120 N   0  0  0  0  0  0  0  0  0  0  0  0
  -26.8259   19.7696  -47.6647 N   0  0  0  0  0  0  0  0  0  0  0  0
  -25.1149   21.2186  -52.2313 C   0  0  0  0  0  0  0  0  0  0  0  0
  -23.6169   20.2484  -50.6508 C   0  0  0  0  0  0  0  0  0  0  0  0
  -23.9717   20.5044  -51.9878 C   0  0  0  0  0  0  0  0  0  0  0  0
  -25.8997   21.6687  -51.1400 C   0  0  0  0  0  0  0  0  0  0  0  0
  -25.5489   21.4145  -49.8719 C   0  0  0  0  0  0  0  0  0  0  0  0
  -23.0966   19.8664  -52.9800 C   0  0  0  0  0  0  0  0  0  0  0  0
  -30.6253   22.7397  -48.0489 C   0  0  1  0  0  0  0  0  0  0  0  0
  -31.3648   22.5997  -46.7974 C   0  0  0  0  0  0  0  0  0  0  0  0
  -30.5455   25.2356  -48.1311 C   0  0  0  0  0  0  0  0  0  0  0  0
  -32.8620   21.9611  -45.2617 C   0  0  0  0  0  0  0  0  0  0  0  0
  -31.9552   22.8651  -44.7360 C   0  0  0  0  0  0  0  0  0  0  0  0
  -31.9465   23.3747  -43.3209 C   0  0  0  0  0  0  0  0  0  0  0  0
  -25.6225   21.4841  -53.5522 C   0  0  0  0  0  0  0  0  0  0  0  0
  -27.2120   20.9389  -48.0262 C   0  0  0  0  0  0  0  0  0  0  0  0
  -28.5733   21.2821  -47.6994 C   0  0  0  0  0  0  0  0  0  0  0  0
  -31.0219   23.9886  -48.8402 C   0  0  2  0  0  0  0  0  0  0  0  0
  -32.4851   24.0732  -49.1160 C   0  0  0  0  0  0  0  0  0  0  0  0
  -30.3054   23.9832  -50.1985 C   0  0  0  0  0  0  0  0  0  0  0  0
  -32.4699   21.8055  -46.5724 C   0  0  0  0  0  0  0  0  0  0  0  0
  -26.7110   22.4607  -55.5491 C   0  0  0  0  0  0  0  0  0  0  0  0
  -26.0487   23.9528  -53.7348 C   0  0  0  0  0  0  0  0  0  0  0  0
  -24.3780   20.6873  -49.6122 C   0  0  0  0  0  0  0  0  0  0  0  0
  -26.2685   21.7983  -48.7152 N   0  0  0  0  0  0  0  0  0  0  0  0
  -29.2457   20.3780  -47.0853 N   0  0  0  0  0  0  0  0  0  0  0  0
  -29.2156   22.5504  -47.9864 N   0  0  0  0  0  0  0  0  0  0  0  0
  -25.7006   20.3950  -54.2873 O   0  0  0  0  0  0  0  0  0  0  0  0
  -27.0502   22.3885  -51.4240 O   0  0  0  0  0  0  0  0  0  0  0  0
  -28.6549   17.8297  -47.6212 O   0  0  0  0  0  0  0  0  0  0  0  0
  -27.9036   18.7575  -45.4425 O   0  0  0  0  0  0  0  0  0  0  0  0
  -31.1107   23.1999  -45.6726 O   0  0  0  0  0  0  0  0  0  0  0  0
  -28.1764   19.0429  -46.8901 S   0  0  1  0  0  6  0  0  0  0  0  0
 15  1  1  0
  1 22  1  0
  1 23  1  0
 16  2  2  0
 33  2  1  6
  3  5  2  0
  6  3  1  0
  3 15  1  0
  4  5  1  0
 24  4  2  0
  5  8  1  0
  7  6  2  0
  6 29  1  0
  7 24  1  0
 25  7  1  0
  9 10  1  0
  9 18  1  0
  9 27  1  1
 10 21  2  0
 10 32  1  0
 18 11  1  1
 13 12  2  0
 21 12  1  0
 13 14  1  0
 32 13  1  0
 15 28  2  0
 17 16  1  0
 16 25  1  0
 17 26  2  0
 17 27  1  0
 18 19  1  0
 18 20  1  0
 26 33  1  0
 33 30  2  0
 33 31  2  0
M  END
$$$$
