
     RDKit          3D

 33 35  0  0  0  0  0  0  0  0999 V2000
  -28.7752   18.0238  -54.0938 N   0  0  0  0  0  0  0  0  0  0  0  0
  -27.5628   20.9008  -48.5619 N   0  0  0  0  0  0  0  0  0  0  0  0
  -27.2135   19.7577  -52.9501 C   0  0  0  0  0  0  0  0  0  0  0  0
  -25.6922   21.5882  -52.8141 C   0  0  0  0  0  0  0  0  0  0  0  0
  -26.0661   20.3614  -53.3921 C   0  0  0  0  0  0  0  0  0  0  0  0
  -27.9781   20.3789  -51.9308 C   0  0  0  0  0  0  0  0  0  0  0  0
  -27.6068   21.5469  -51.3887 C   0  0  0  0  0  0  0  0  0  0  0  0
  -25.0941   19.8226  -54.3525 C   0  0  0  0  0  0  0  0  0  0  0  0
  -31.0990   23.9312  -47.4082 C   0  0  1  0  0  0  0  0  0  0  0  0
  -30.4347   25.2261  -47.2876 C   0  0  0  0  0  0  0  0  0  0  0  0
  -33.1448   24.9180  -46.3672 C   0  0  0  0  0  0  0  0  0  0  0  0
  -29.5090   27.0809  -46.4445 C   0  0  0  0  0  0  0  0  0  0  0  0
  -29.4576   27.0760  -47.8277 C   0  0  0  0  0  0  0  0  0  0  0  0
  -28.8645   28.1593  -48.6861 C   0  0  0  0  0  0  0  0  0  0  0  0
  -27.6645   18.4700  -53.4097 C   0  0  0  0  0  0  0  0  0  0  0  0
  -28.4332   21.7332  -49.0053 C   0  0  0  0  0  0  0  0  0  0  0  0
  -29.4901   22.0865  -48.0909 C   0  0  0  0  0  0  0  0  0  0  0  0
  -32.6233   24.0472  -47.4873 C   0  0  2  0  0  0  0  0  0  0  0  0
  -33.3170   22.7270  -47.4867 C   0  0  0  0  0  0  0  0  0  0  0  0
  -33.0156   24.7634  -48.7879 C   0  0  0  0  0  0  0  0  0  0  0  0
  -30.1333   25.8971  -46.1207 C   0  0  0  0  0  0  0  0  0  0  0  0
  -28.8836   16.5628  -54.4109 C   0  0  0  0  0  0  0  0  0  0  0  0
  -29.9251   18.7694  -54.4628 C   0  0  0  0  0  0  0  0  0  0  0  0
  -26.4356   22.1747  -51.8373 C   0  0  0  0  0  0  0  0  0  0  0  0
  -28.2837   22.2390  -50.3563 N   0  0  0  0  0  0  0  0  0  0  0  0
  -29.4417   21.5266  -46.9373 N   0  0  0  0  0  0  0  0  0  0  0  0
  -30.5644   23.0218  -48.3644 N   0  0  0  0  0  0  0  0  0  0  0  0
  -26.8275   17.5042  -53.0945 O   0  0  0  0  0  0  0  0  0  0  0  0
  -29.1333   19.7393  -51.5080 O   0  0  0  0  0  0  0  0  0  0  0  0
  -28.3913   19.0754  -46.8036 O   0  0  0  0  0  0  0  0  0  0  0  0
  -27.0264   20.9667  -45.9482 O   0  0  0  0  0  0  0  0  0  0  0  0
  -30.0092   25.9757  -48.2608 O   0  0  0  0  0  0  0  0  0  0  0  0
  -28.0441   20.5214  -46.9568 S   0  0  1  0  0  6  0  0  0  0  0  0
 15  1  1  0
  1 22  1  0
  1 23  1  0
 16  2  2  0
 33  2  1  6
  3  5  2  0
  6  3  1  0
  3 15  1  0
  4  5  1  0
 24  4  2  0
  5  8  1  0
  7  6  2  0
  6 29  1  0
  7 24  1  0
 25  7  1  0
  9 10  1  0
  9 18  1  0
  9 27  1  6
 10 21  2  0
 10 32  1  0
 18 11  1  1
 13 12  2  0
 21 12  1  0
 13 14  1  0
 32 13  1  0
 15 28  2  0
 17 16  1  0
 16 25  1  0
 17 26  2  0
 17 27  1  0
 18 19  1  0
 18 20  1  0
 26 33  1  0
 33 30  2  0
 33 31  2  0
M  END
$$$$
