
     RDKit          3D

 33 35  0  0  0  0  0  0  0  0999 V2000
  -22.5929   24.3285  -51.0384 N   0  0  0  0  0  0  0  0  0  0  0  0
  -27.5838   20.9516  -47.9207 N   0  0  0  0  0  0  0  0  0  0  0  0
  -24.6763   24.3074  -49.4852 C   0  0  0  0  0  0  0  0  0  0  0  0
  -26.5888   25.1576  -48.3438 C   0  0  0  0  0  0  0  0  0  0  0  0
  -25.2290   25.2725  -48.6856 C   0  0  0  0  0  0  0  0  0  0  0  0
  -25.4819   23.2311  -49.9347 C   0  0  0  0  0  0  0  0  0  0  0  0
  -26.7754   23.1350  -49.5980 C   0  0  0  0  0  0  0  0  0  0  0  0
  -24.5339   26.3928  -48.0382 C   0  0  0  0  0  0  0  0  0  0  0  0
  -29.1646   18.1995  -51.5541 C   0  0  1  0  0  0  0  0  0  0  0  0
  -30.2586   17.3358  -51.1181 C   0  0  0  0  0  0  0  0  0  0  0  0
  -30.0979   19.1162  -53.6829 C   0  0  0  0  0  0  0  0  0  0  0  0
  -31.4156   15.6449  -50.2182 C   0  0  0  0  0  0  0  0  0  0  0  0
  -32.2573   16.5846  -50.7877 C   0  0  0  0  0  0  0  0  0  0  0  0
  -33.7593   16.5118  -50.8169 C   0  0  0  0  0  0  0  0  0  0  0  0
  -23.2829   24.2734  -49.8461 C   0  0  0  0  0  0  0  0  0  0  0  0
  -27.9338   20.9303  -49.1552 C   0  0  0  0  0  0  0  0  0  0  0  0
  -28.5795   19.7231  -49.6063 C   0  0  0  0  0  0  0  0  0  0  0  0
  -29.0159   18.2520  -53.0767 C   0  0  2  0  0  0  0  0  0  0  0  0
  -29.0064   16.9047  -53.7161 C   0  0  0  0  0  0  0  0  0  0  0  0
  -27.6880   18.9334  -53.4383 C   0  0  0  0  0  0  0  0  0  0  0  0
  -30.1500   16.1404  -50.4385 C   0  0  0  0  0  0  0  0  0  0  0  0
  -21.1839   23.8184  -51.0762 C   0  0  0  0  0  0  0  0  0  0  0  0
  -23.0865   24.7211  -52.3099 C   0  0  0  0  0  0  0  0  0  0  0  0
  -27.3515   24.1203  -48.7829 C   0  0  0  0  0  0  0  0  0  0  0  0
  -27.6593   22.0955  -49.9740 N   0  0  0  0  0  0  0  0  0  0  0  0
  -28.7293   18.8053  -48.7221 N   0  0  0  0  0  0  0  0  0  0  0  0
  -29.0797   19.4843  -50.9466 N   0  0  0  0  0  0  0  0  0  0  0  0
  -22.4965   24.1534  -48.7974 O   0  0  0  0  0  0  0  0  0  0  0  0
  -24.8889   22.2726  -50.7422 O   0  0  0  0  0  0  0  0  0  0  0  0
  -26.8821   18.6354  -46.8015 O   0  0  0  0  0  0  0  0  0  0  0  0
  -29.0958   19.5866  -46.1960 O   0  0  0  0  0  0  0  0  0  0  0  0
  -31.5300   17.5423  -51.2939 O   0  0  0  0  0  0  0  0  0  0  0  0
  -28.0565   19.4345  -47.2676 S   0  0  1  0  0  6  0  0  0  0  0  0
 15  1  1  0
  1 22  1  0
  1 23  1  0
 16  2  2  0
 33  2  1  6
  3  5  2  0
  6  3  1  0
  3 15  1  0
  4  5  1  0
 24  4  2  0
  5  8  1  0
  7  6  2  0
  6 29  1  0
  7 24  1  0
 25  7  1  0
  9 10  1  0
  9 18  1  0
  9 27  1  6
 10 21  2  0
 10 32  1  0
 18 11  1  6
 13 12  2  0
 21 12  1  0
 13 14  1  0
 32 13  1  0
 15 28  2  0
 17 16  1  0
 16 25  1  0
 17 26  2  0
 17 27  1  0
 18 19  1  0
 18 20  1  0
 26 33  1  0
 33 30  2  0
 33 31  2  0
M  END
$$$$
