
     RDKit          3D

 33 35  0  0  0  0  0  0  0  0999 V2000
  -22.3736   24.4476  -50.9624 N   0  0  0  0  0  0  0  0  0  0  0  0
  -27.9190   20.5239  -47.7358 N   0  0  0  0  0  0  0  0  0  0  0  0
  -24.0965   23.3355  -49.3660 C   0  0  0  0  0  0  0  0  0  0  0  0
  -25.7586   23.6150  -47.6800 C   0  0  0  0  0  0  0  0  0  0  0  0
  -24.5244   23.9901  -48.2414 C   0  0  0  0  0  0  0  0  0  0  0  0
  -24.8997   22.3076  -49.9206 C   0  0  0  0  0  0  0  0  0  0  0  0
  -26.0722   21.9606  -49.3722 C   0  0  0  0  0  0  0  0  0  0  0  0
  -23.7868   24.9964  -47.4665 C   0  0  0  0  0  0  0  0  0  0  0  0
  -29.8448   18.8819  -51.6427 C   0  0  1  0  0  0  0  0  0  0  0  0
  -29.7911   20.1747  -52.3197 C   0  0  0  0  0  0  0  0  0  0  0  0
  -30.3828   16.4478  -51.8122 C   0  0  0  0  0  0  0  0  0  0  0  0
  -29.1082   21.9126  -53.5530 C   0  0  0  0  0  0  0  0  0  0  0  0
  -30.3591   22.1428  -53.0071 C   0  0  0  0  0  0  0  0  0  0  0  0
  -31.1821   23.3875  -53.1965 C   0  0  0  0  0  0  0  0  0  0  0  0
  -22.8228   23.5768  -49.9924 C   0  0  0  0  0  0  0  0  0  0  0  0
  -27.8425   20.1981  -48.9748 C   0  0  0  0  0  0  0  0  0  0  0  0
  -28.6856   19.1060  -49.3924 C   0  0  0  0  0  0  0  0  0  0  0  0
  -30.1601   17.7234  -52.5922 C   0  0  2  0  0  0  0  0  0  0  0  0
  -29.1188   17.5181  -53.6398 C   0  0  0  0  0  0  0  0  0  0  0  0
  -31.4837   18.0028  -53.3191 C   0  0  0  0  0  0  0  0  0  0  0  0
  -28.7645   20.6569  -53.1046 C   0  0  0  0  0  0  0  0  0  0  0  0
  -23.2976   25.5261  -51.4418 C   0  0  0  0  0  0  0  0  0  0  0  0
  -21.0700   24.5319  -51.5171 C   0  0  0  0  0  0  0  0  0  0  0  0
  -26.5208   22.6276  -48.2228 C   0  0  0  0  0  0  0  0  0  0  0  0
  -26.9375   20.9395  -49.8320 N   0  0  0  0  0  0  0  0  0  0  0  0
  -29.4159   18.5818  -48.4768 N   0  0  0  0  0  0  0  0  0  0  0  0
  -28.7830   18.5841  -50.7421 N   0  0  0  0  0  0  0  0  0  0  0  0
  -21.8817   22.7761  -49.5388 O   0  0  0  0  0  0  0  0  0  0  0  0
  -24.4350   21.6667  -51.0589 O   0  0  0  0  0  0  0  0  0  0  0  0
  -28.4548   18.5849  -45.9856 O   0  0  0  0  0  0  0  0  0  0  0  0
  -30.2740   20.1884  -46.5252 O   0  0  0  0  0  0  0  0  0  0  0  0
  -30.7037   21.1004  -52.3020 O   0  0  0  0  0  0  0  0  0  0  0  0
  -29.0678   19.4558  -47.0348 S   0  0  1  0  0  6  0  0  0  0  0  0
 15  1  1  0
  1 22  1  0
  1 23  1  0
 16  2  2  0
 33  2  1  6
  3  5  2  0
  6  3  1  0
  3 15  1  0
  4  5  1  0
 24  4  2  0
  5  8  1  0
  7  6  2  0
  6 29  1  0
  7 24  1  0
 25  7  1  0
  9 10  1  0
  9 18  1  0
  9 27  1  6
 10 21  2  0
 10 32  1  0
 18 11  1  1
 13 12  2  0
 21 12  1  0
 13 14  1  0
 32 13  1  0
 15 28  2  0
 17 16  1  0
 16 25  1  0
 17 26  2  0
 17 27  1  0
 18 19  1  0
 18 20  1  0
 26 33  1  0
 33 30  2  0
 33 31  2  0
M  END
$$$$
