
     RDKit          3D

 33 35  0  0  0  0  0  0  0  0999 V2000
  -32.6023   26.6020  -47.7066 N   0  0  0  0  0  0  0  0  0  0  0  0
  -27.4597   22.3380  -48.1533 N   0  0  0  0  0  0  0  0  0  0  0  0
  -30.2841   26.2383  -48.8232 C   0  0  0  0  0  0  0  0  0  0  0  0
  -27.9225   26.5543  -48.7417 C   0  0  0  0  0  0  0  0  0  0  0  0
  -29.2213   27.0479  -48.5212 C   0  0  0  0  0  0  0  0  0  0  0  0
  -30.0450   24.9433  -49.3480 C   0  0  0  0  0  0  0  0  0  0  0  0
  -28.8014   24.4888  -49.5544 C   0  0  0  0  0  0  0  0  0  0  0  0
  -29.2705   28.4470  -48.0768 C   0  0  0  0  0  0  0  0  0  0  0  0
  -26.5742   19.7034  -52.0864 C   0  0  1  0  0  0  0  0  0  0  0  0
  -27.3837   18.6026  -51.5710 C   0  0  0  0  0  0  0  0  0  0  0  0
  -25.4523   20.7024  -54.0830 C   0  0  0  0  0  0  0  0  0  0  0  0
  -28.0158   16.6202  -50.7474 C   0  0  0  0  0  0  0  0  0  0  0  0
  -29.1007   17.4613  -50.9247 C   0  0  0  0  0  0  0  0  0  0  0  0
  -30.5327   17.1210  -50.6150 C   0  0  0  0  0  0  0  0  0  0  0  0
  -31.6584   26.6521  -48.7103 C   0  0  0  0  0  0  0  0  0  0  0  0
  -27.5755   22.2796  -49.4301 C   0  0  0  0  0  0  0  0  0  0  0  0
  -26.8037   21.2544  -50.0866 C   0  0  0  0  0  0  0  0  0  0  0  0
  -26.5193   19.7389  -53.6158 C   0  0  2  0  0  0  0  0  0  0  0  0
  -27.8301   20.0677  -54.2465 C   0  0  0  0  0  0  0  0  0  0  0  0
  -26.0959   18.3610  -54.1451 C   0  0  0  0  0  0  0  0  0  0  0  0
  -26.9342   17.3637  -51.1637 C   0  0  0  0  0  0  0  0  0  0  0  0
  -33.9623   27.1741  -47.9715 C   0  0  0  0  0  0  0  0  0  0  0  0
  -32.4930   25.9655  -46.4428 C   0  0  0  0  0  0  0  0  0  0  0  0
  -27.7065   25.3088  -49.2447 C   0  0  0  0  0  0  0  0  0  0  0  0
  -28.4540   23.2259  -50.0906 N   0  0  0  0  0  0  0  0  0  0  0  0
  -26.0863   20.5173  -49.3194 N   0  0  0  0  0  0  0  0  0  0  0  0
  -26.7959   20.9872  -51.5121 N   0  0  0  0  0  0  0  0  0  0  0  0
  -32.1125   27.1904  -49.8223 O   0  0  0  0  0  0  0  0  0  0  0  0
  -31.1445   24.1516  -49.6423 O   0  0  0  0  0  0  0  0  0  0  0  0
  -25.1138   21.6354  -47.0982 O   0  0  0  0  0  0  0  0  0  0  0  0
  -27.0095   20.0476  -46.8591 O   0  0  0  0  0  0  0  0  0  0  0  0
  -28.6730   18.5967  -51.4045 O   0  0  0  0  0  0  0  0  0  0  0  0
  -26.3600   21.0913  -47.7195 S   0  0  1  0  0  6  0  0  0  0  0  0
 15  1  1  0
  1 22  1  0
  1 23  1  0
 16  2  2  0
 33  2  1  6
  3  5  2  0
  6  3  1  0
  3 15  1  0
  4  5  1  0
 24  4  2  0
  5  8  1  0
  7  6  2  0
  6 29  1  0
  7 24  1  0
 25  7  1  0
  9 10  1  0
  9 18  1  0
  9 27  1  6
 10 21  2  0
 10 32  1  0
 18 11  1  1
 13 12  2  0
 21 12  1  0
 13 14  1  0
 32 13  1  0
 15 28  2  0
 17 16  1  0
 16 25  1  0
 17 26  2  0
 17 27  1  0
 18 19  1  0
 18 20  1  0
 26 33  1  0
 33 30  2  0
 33 31  2  0
M  END
$$$$
