
     RDKit          3D

 33 35  0  0  0  0  0  0  0  0999 V2000
  -33.1310   25.8077  -45.8796 N   0  0  0  0  0  0  0  0  0  0  0  0
  -29.0382   20.6608  -47.7647 N   0  0  0  0  0  0  0  0  0  0  0  0
  -32.4237   23.7729  -47.3331 C   0  0  0  0  0  0  0  0  0  0  0  0
  -32.7964   22.4331  -49.2694 C   0  0  0  0  0  0  0  0  0  0  0  0
  -33.3094   23.1692  -48.1859 C   0  0  0  0  0  0  0  0  0  0  0  0
  -31.0318   23.6344  -47.5634 C   0  0  0  0  0  0  0  0  0  0  0  0
  -30.5592   22.9276  -48.5992 C   0  0  0  0  0  0  0  0  0  0  0  0
  -34.7706   23.1084  -48.0494 C   0  0  0  0  0  0  0  0  0  0  0  0
  -25.0625   21.7100  -50.2741 C   0  0  1  0  0  0  0  0  0  0  0  0
  -25.3593   20.8761  -51.4356 C   0  0  0  0  0  0  0  0  0  0  0  0
  -23.6652   23.5419  -49.3075 C   0  0  0  0  0  0  0  0  0  0  0  0
  -25.5016   19.1345  -52.8337 C   0  0  0  0  0  0  0  0  0  0  0  0
  -26.0843   20.2661  -53.3775 C   0  0  0  0  0  0  0  0  0  0  0  0
  -26.7376   20.3514  -54.7295 C   0  0  0  0  0  0  0  0  0  0  0  0
  -32.8201   24.4920  -46.1505 C   0  0  0  0  0  0  0  0  0  0  0  0
  -28.4379   21.5567  -48.4605 C   0  0  0  0  0  0  0  0  0  0  0  0
  -27.0433   21.3138  -48.7323 C   0  0  0  0  0  0  0  0  0  0  0  0
  -24.0495   22.8169  -50.5769 C   0  0  2  0  0  0  0  0  0  0  0  0
  -24.5235   23.7857  -51.6069 C   0  0  0  0  0  0  0  0  0  0  0  0
  -22.7513   22.1916  -51.1080 C   0  0  0  0  0  0  0  0  0  0  0  0
  -25.0469   19.5426  -51.5997 C   0  0  0  0  0  0  0  0  0  0  0  0
  -33.4238   26.7266  -47.0271 C   0  0  0  0  0  0  0  0  0  0  0  0
  -33.3213   26.4110  -44.6092 C   0  0  0  0  0  0  0  0  0  0  0  0
  -31.4582   22.3090  -49.4802 C   0  0  0  0  0  0  0  0  0  0  0  0
  -29.1949   22.7105  -48.9067 N   0  0  0  0  0  0  0  0  0  0  0  0
  -26.5595   20.2295  -48.2457 N   0  0  0  0  0  0  0  0  0  0  0  0
  -26.1745   22.1722  -49.5145 N   0  0  0  0  0  0  0  0  0  0  0  0
  -32.8908   23.7141  -45.0911 O   0  0  0  0  0  0  0  0  0  0  0  0
  -30.1647   24.2588  -46.6798 O   0  0  0  0  0  0  0  0  0  0  0  0
  -27.5961   19.3421  -45.9505 O   0  0  0  0  0  0  0  0  0  0  0  0
  -28.2066   18.1392  -48.0366 O   0  0  0  0  0  0  0  0  0  0  0  0
  -25.9718   21.2444  -52.5215 O   0  0  0  0  0  0  0  0  0  0  0  0
  -27.8586   19.4609  -47.4175 S   0  0  1  0  0  6  0  0  0  0  0  0
 15  1  1  0
  1 22  1  0
  1 23  1  0
 16  2  2  0
 33  2  1  1
  3  5  2  0
  6  3  1  0
  3 15  1  0
  4  5  1  0
 24  4  2  0
  5  8  1  0
  7  6  2  0
  6 29  1  0
  7 24  1  0
 25  7  1  0
  9 10  1  0
  9 18  1  0
  9 27  1  6
 10 21  2  0
 10 32  1  0
 18 11  1  1
 13 12  2  0
 21 12  1  0
 13 14  1  0
 32 13  1  0
 15 28  2  0
 17 16  1  0
 16 25  1  0
 17 26  2  0
 17 27  1  0
 18 19  1  0
 18 20  1  0
 26 33  1  0
 33 30  2  0
 33 31  2  0
M  END
$$$$
