
     RDKit          3D

 33 35  0  0  0  0  0  0  0  0999 V2000
  -30.0700   17.3132  -53.9121 N   0  0  0  0  0  0  0  0  0  0  0  0
  -28.4205   20.1682  -48.9684 N   0  0  0  0  0  0  0  0  0  0  0  0
  -31.1608   19.2493  -52.5650 C   0  0  0  0  0  0  0  0  0  0  0  0
  -32.3567   20.7110  -51.1100 C   0  0  0  0  0  0  0  0  0  0  0  0
  -32.3602   19.6631  -52.0486 C   0  0  0  0  0  0  0  0  0  0  0  0
  -29.9660   19.8867  -52.1457 C   0  0  0  0  0  0  0  0  0  0  0  0
  -29.9800   20.8853  -51.2522 C   0  0  0  0  0  0  0  0  0  0  0  0
  -33.6995   19.2037  -52.4391 C   0  0  0  0  0  0  0  0  0  0  0  0
  -25.0108   23.5936  -49.3794 C   0  0  1  0  0  0  0  0  0  0  0  0
  -23.7772   23.3613  -50.1257 C   0  0  0  0  0  0  0  0  0  0  0  0
  -24.6717   25.3937  -47.6802 C   0  0  0  0  0  0  0  0  0  0  0  0
  -21.6533   22.8850  -50.6452 C   0  0  0  0  0  0  0  0  0  0  0  0
  -22.3944   23.1813  -51.7761 C   0  0  0  0  0  0  0  0  0  0  0  0
  -21.8733   23.1919  -53.1870 C   0  0  0  0  0  0  0  0  0  0  0  0
  -31.0376   18.2385  -53.5827 C   0  0  0  0  0  0  0  0  0  0  0  0
  -28.0399   21.1824  -49.6565 C   0  0  0  0  0  0  0  0  0  0  0  0
  -26.8163   21.8118  -49.2272 C   0  0  0  0  0  0  0  0  0  0  0  0
  -25.2368   25.0701  -49.0443 C   0  0  2  0  0  0  0  0  0  0  0  0
  -26.6677   25.4821  -49.1263 C   0  0  0  0  0  0  0  0  0  0  0  0
  -24.4567   25.9455  -50.0360 C   0  0  0  0  0  0  0  0  0  0  0  0
  -22.5498   23.0048  -49.6070 C   0  0  0  0  0  0  0  0  0  0  0  0
  -28.6294   17.6878  -53.7351 C   0  0  0  0  0  0  0  0  0  0  0  0
  -30.2586   15.9650  -54.3133 C   0  0  0  0  0  0  0  0  0  0  0  0
  -31.2027   21.3135  -50.7149 C   0  0  0  0  0  0  0  0  0  0  0  0
  -28.8519   21.5999  -50.7834 N   0  0  0  0  0  0  0  0  0  0  0  0
  -26.2470   21.2874  -48.2037 N   0  0  0  0  0  0  0  0  0  0  0  0
  -26.1854   22.9517  -49.8646 N   0  0  0  0  0  0  0  0  0  0  0  0
  -32.0838   18.2006  -54.3805 O   0  0  0  0  0  0  0  0  0  0  0  0
  -28.7706   19.4419  -52.6894 O   0  0  0  0  0  0  0  0  0  0  0  0
  -27.8202   20.1498  -46.3704 O   0  0  0  0  0  0  0  0  0  0  0  0
  -26.5190   18.6533  -47.8669 O   0  0  0  0  0  0  0  0  0  0  0  0
  -23.6186   23.4493  -51.4130 O   0  0  0  0  0  0  0  0  0  0  0  0
  -27.2413   19.9619  -47.7360 S   0  0  1  0  0  6  0  0  0  0  0  0
 15  1  1  0
  1 22  1  0
  1 23  1  0
 16  2  2  0
 33  2  1  6
  3  5  2  0
  6  3  1  0
  3 15  1  0
  4  5  1  0
 24  4  2  0
  5  8  1  0
  7  6  2  0
  6 29  1  0
  7 24  1  0
 25  7  1  0
  9 10  1  0
  9 18  1  0
  9 27  1  6
 10 21  2  0
 10 32  1  0
 18 11  1  1
 13 12  2  0
 21 12  1  0
 13 14  1  0
 32 13  1  0
 15 28  2  0
 17 16  1  0
 16 25  1  0
 17 26  2  0
 17 27  1  0
 18 19  1  0
 18 20  1  0
 26 33  1  0
 33 30  2  0
 33 31  2  0
M  END
$$$$
