
     RDKit          3D

 33 35  0  0  0  0  0  0  0  0999 V2000
  -30.5711   15.9852  -55.0616 N   0  0  0  0  0  0  0  0  0  0  0  0
  -28.7182   19.0316  -48.4885 N   0  0  0  0  0  0  0  0  0  0  0  0
  -30.2850   16.5255  -52.5358 C   0  0  0  0  0  0  0  0  0  0  0  0
  -31.4081   17.2066  -50.5463 C   0  0  0  0  0  0  0  0  0  0  0  0
  -31.3455   16.3780  -51.6815 C   0  0  0  0  0  0  0  0  0  0  0  0
  -29.2963   17.5017  -52.2553 C   0  0  0  0  0  0  0  0  0  0  0  0
  -29.3717   18.2849  -51.1705 C   0  0  0  0  0  0  0  0  0  0  0  0
  -32.5136   15.5057  -51.8603 C   0  0  0  0  0  0  0  0  0  0  0  0
  -26.3901   23.1052  -49.6378 C   0  0  1  0  0  0  0  0  0  0  0  0
  -25.4166   23.3176  -48.5702 C   0  0  0  0  0  0  0  0  0  0  0  0
  -27.2543   23.8548  -51.8591 C   0  0  0  0  0  0  0  0  0  0  0  0
  -24.3614   24.1352  -46.7740 C   0  0  0  0  0  0  0  0  0  0  0  0
  -23.6652   23.0750  -47.3282 C   0  0  0  0  0  0  0  0  0  0  0  0
  -22.3652   22.5177  -46.8167 C   0  0  0  0  0  0  0  0  0  0  0  0
  -30.1440   15.7898  -53.7654 C   0  0  0  0  0  0  0  0  0  0  0  0
  -28.2037   19.7174  -49.4436 C   0  0  0  0  0  0  0  0  0  0  0  0
  -27.4123   20.8549  -49.0470 C   0  0  0  0  0  0  0  0  0  0  0  0
  -26.1035   23.9476  -50.8834 C   0  0  2  0  0  0  0  0  0  0  0  0
  -24.8209   23.5908  -51.5555 C   0  0  0  0  0  0  0  0  0  0  0  0
  -26.0107   25.4290  -50.4895 C   0  0  0  0  0  0  0  0  0  0  0  0
  -25.4711   24.2738  -47.5774 C   0  0  0  0  0  0  0  0  0  0  0  0
  -31.3001   17.2522  -55.3935 C   0  0  0  0  0  0  0  0  0  0  0  0
  -30.3149   15.1673  -56.1928 C   0  0  0  0  0  0  0  0  0  0  0  0
  -30.4517   18.1389  -50.2876 C   0  0  0  0  0  0  0  0  0  0  0  0
  -28.4535   19.2997  -50.8098 N   0  0  0  0  0  0  0  0  0  0  0  0
  -27.3135   21.0541  -47.7832 N   0  0  0  0  0  0  0  0  0  0  0  0
  -26.7184   21.7551  -49.9481 N   0  0  0  0  0  0  0  0  0  0  0  0
  -29.4600   14.6764  -53.6074 O   0  0  0  0  0  0  0  0  0  0  0  0
  -28.2373   17.6232  -53.1420 O   0  0  0  0  0  0  0  0  0  0  0  0
  -29.3851   20.3346  -46.2598 O   0  0  0  0  0  0  0  0  0  0  0  0
  -27.3533   18.9065  -46.1983 O   0  0  0  0  0  0  0  0  0  0  0  0
  -24.3252   22.6413  -48.3669 O   0  0  0  0  0  0  0  0  0  0  0  0
  -28.2232   19.7993  -47.0334 S   0  0  1  0  0  6  0  0  0  0  0  0
 15  1  1  0
  1 22  1  0
  1 23  1  0
 16  2  2  0
 33  2  1  6
  3  5  2  0
  6  3  1  0
  3 15  1  0
  4  5  1  0
 24  4  2  0
  5  8  1  0
  7  6  2  0
  6 29  1  0
  7 24  1  0
 25  7  1  0
  9 10  1  0
  9 18  1  0
  9 27  1  6
 10 21  2  0
 10 32  1  0
 18 11  1  6
 13 12  2  0
 21 12  1  0
 13 14  1  0
 32 13  1  0
 15 28  2  0
 17 16  1  0
 16 25  1  0
 17 26  2  0
 17 27  1  0
 18 19  1  0
 18 20  1  0
 26 33  1  0
 33 30  2  0
 33 31  2  0
M  END
$$$$
