
     RDKit          3D

 33 35  0  0  0  0  0  0  0  0999 V2000
  -31.1842   16.4335  -51.9008 N   0  0  0  0  0  0  0  0  0  0  0  0
  -28.2404   20.6577  -48.6285 N   0  0  0  0  0  0  0  0  0  0  0  0
  -30.9745   18.9975  -51.5332 C   0  0  0  0  0  0  0  0  0  0  0  0
  -31.1910   21.1556  -52.5229 C   0  0  0  0  0  0  0  0  0  0  0  0
  -31.7238   19.8791  -52.2665 C   0  0  0  0  0  0  0  0  0  0  0  0
  -29.6963   19.3928  -51.0647 C   0  0  0  0  0  0  0  0  0  0  0  0
  -29.2020   20.6120  -51.3197 C   0  0  0  0  0  0  0  0  0  0  0  0
  -33.0106   19.6162  -52.9240 C   0  0  0  0  0  0  0  0  0  0  0  0
  -24.7327   23.7172  -49.6924 C   0  0  1  0  0  0  0  0  0  0  0  0
  -23.2932   23.8653  -49.8894 C   0  0  0  0  0  0  0  0  0  0  0  0
  -25.6634   24.5905  -51.8404 C   0  0  0  0  0  0  0  0  0  0  0  0
  -21.2358   23.7623  -50.7637 C   0  0  0  0  0  0  0  0  0  0  0  0
  -21.2321   24.4125  -49.5417 C   0  0  0  0  0  0  0  0  0  0  0  0
  -20.0216   24.9879  -48.8593 C   0  0  0  0  0  0  0  0  0  0  0  0
  -31.3763   17.6414  -51.2645 C   0  0  0  0  0  0  0  0  0  0  0  0
  -27.4984   21.1777  -49.5375 C   0  0  0  0  0  0  0  0  0  0  0  0
  -26.2809   21.7980  -49.0784 C   0  0  0  0  0  0  0  0  0  0  0  0
  -25.5438   24.8345  -50.3535 C   0  0  2  0  0  0  0  0  0  0  0  0
  -24.9958   26.1965  -50.0917 C   0  0  0  0  0  0  0  0  0  0  0  0
  -26.9806   24.8135  -49.8117 C   0  0  0  0  0  0  0  0  0  0  0  0
  -22.5546   23.4225  -50.9670 C   0  0  0  0  0  0  0  0  0  0  0  0
  -31.6463   15.1815  -51.2183 C   0  0  0  0  0  0  0  0  0  0  0  0
  -30.6835   16.2119  -53.2102 C   0  0  0  0  0  0  0  0  0  0  0  0
  -29.9633   21.5231  -52.0663 C   0  0  0  0  0  0  0  0  0  0  0  0
  -27.9349   21.0982  -50.9183 N   0  0  0  0  0  0  0  0  0  0  0  0
  -26.0780   21.7615  -47.8119 N   0  0  0  0  0  0  0  0  0  0  0  0
  -25.2828   22.4246  -49.9239 N   0  0  0  0  0  0  0  0  0  0  0  0
  -32.0968   17.5403  -50.1676 O   0  0  0  0  0  0  0  0  0  0  0  0
  -28.9658   18.4746  -50.3260 O   0  0  0  0  0  0  0  0  0  0  0  0
  -28.2225   21.8050  -46.2216 O   0  0  0  0  0  0  0  0  0  0  0  0
  -27.0189   19.6473  -46.4813 O   0  0  0  0  0  0  0  0  0  0  0  0
  -22.4530   24.4422  -49.0824 O   0  0  0  0  0  0  0  0  0  0  0  0
  -27.4285   20.9320  -47.1395 S   0  0  1  0  0  6  0  0  0  0  0  0
 15  1  1  0
  1 22  1  0
  1 23  1  0
 16  2  2  0
 33  2  1  6
  3  5  2  0
  6  3  1  0
  3 15  1  0
  4  5  1  0
 24  4  2  0
  5  8  1  0
  7  6  2  0
  6 29  1  0
  7 24  1  0
 25  7  1  0
  9 10  1  0
  9 18  1  0
  9 27  1  6
 10 21  2  0
 10 32  1  0
 18 11  1  6
 13 12  2  0
 21 12  1  0
 13 14  1  0
 32 13  1  0
 15 28  2  0
 17 16  1  0
 16 25  1  0
 17 26  2  0
 17 27  1  0
 18 19  1  0
 18 20  1  0
 26 33  1  0
 33 30  2  0
 33 31  2  0
M  END
$$$$
