
     RDKit          3D

 33 35  0  0  0  0  0  0  0  0999 V2000
  -23.3799   24.7341  -51.3699 N   0  0  0  0  0  0  0  0  0  0  0  0
  -27.8407   20.2276  -46.9896 N   0  0  0  0  0  0  0  0  0  0  0  0
  -24.0665   23.1924  -49.3938 C   0  0  0  0  0  0  0  0  0  0  0  0
  -24.1220   22.5893  -47.0880 C   0  0  0  0  0  0  0  0  0  0  0  0
  -23.3984   23.0375  -48.2081 C   0  0  0  0  0  0  0  0  0  0  0  0
  -25.4510   22.8943  -49.4562 C   0  0  0  0  0  0  0  0  0  0  0  0
  -26.1254   22.4661  -48.3803 C   0  0  0  0  0  0  0  0  0  0  0  0
  -21.9559   23.1892  -47.9767 C   0  0  0  0  0  0  0  0  0  0  0  0
  -30.1871   20.1590  -51.1512 C   0  0  1  0  0  0  0  0  0  0  0  0
  -31.0912   21.3017  -51.2490 C   0  0  0  0  0  0  0  0  0  0  0  0
  -29.2829   20.2374  -53.4792 C   0  0  0  0  0  0  0  0  0  0  0  0
  -31.8877   23.3863  -51.4161 C   0  0  0  0  0  0  0  0  0  0  0  0
  -32.9129   22.4581  -51.3608 C   0  0  0  0  0  0  0  0  0  0  0  0
  -34.3830   22.7730  -51.4046 C   0  0  0  0  0  0  0  0  0  0  0  0
  -23.4261   23.5747  -50.6253 C   0  0  0  0  0  0  0  0  0  0  0  0
  -27.9890   20.7723  -48.1422 C   0  0  0  0  0  0  0  0  0  0  0  0
  -28.6452   19.9657  -49.1405 C   0  0  0  0  0  0  0  0  0  0  0  0
  -30.0386   19.4004  -52.4725 C   0  0  2  0  0  0  0  0  0  0  0  0
  -31.3400   18.9482  -53.0434 C   0  0  0  0  0  0  0  0  0  0  0  0
  -29.1825   18.1453  -52.2489 C   0  0  0  0  0  0  0  0  0  0  0  0
  -30.7381   22.6318  -51.3438 C   0  0  0  0  0  0  0  0  0  0  0  0
  -24.3340   25.8405  -51.0346 C   0  0  0  0  0  0  0  0  0  0  0  0
  -22.4474   25.0790  -52.3826 C   0  0  0  0  0  0  0  0  0  0  0  0
  -25.4510   22.3081  -47.1608 C   0  0  0  0  0  0  0  0  0  0  0  0
  -27.4978   22.1226  -48.3394 N   0  0  0  0  0  0  0  0  0  0  0  0
  -29.0051   18.7931  -48.7637 N   0  0  0  0  0  0  0  0  0  0  0  0
  -28.9412   20.3800  -50.4986 N   0  0  0  0  0  0  0  0  0  0  0  0
  -22.7392   22.5875  -51.1603 O   0  0  0  0  0  0  0  0  0  0  0  0
  -26.0946   23.0625  -50.6727 O   0  0  0  0  0  0  0  0  0  0  0  0
  -27.5082   17.5831  -46.9130 O   0  0  0  0  0  0  0  0  0  0  0  0
  -29.7102   18.4910  -46.2069 O   0  0  0  0  0  0  0  0  0  0  0  0
  -32.3906   21.2663  -51.2646 O   0  0  0  0  0  0  0  0  0  0  0  0
  -28.5276   18.6578  -47.1151 S   0  0  1  0  0  6  0  0  0  0  0  0
 15  1  1  0
  1 22  1  0
  1 23  1  0
 16  2  2  0
 33  2  1  1
  3  5  2  0
  6  3  1  0
  3 15  1  0
  4  5  1  0
 24  4  2  0
  5  8  1  0
  7  6  2  0
  6 29  1  0
  7 24  1  0
 25  7  1  0
  9 10  1  0
  9 18  1  0
  9 27  1  6
 10 21  2  0
 10 32  1  0
 18 11  1  6
 13 12  2  0
 21 12  1  0
 13 14  1  0
 32 13  1  0
 15 28  2  0
 17 16  1  0
 16 25  1  0
 17 26  2  0
 17 27  1  0
 18 19  1  0
 18 20  1  0
 26 33  1  0
 33 30  2  0
 33 31  2  0
M  END
$$$$
