
     RDKit          3D

 33 35  0  0  0  0  0  0  0  0999 V2000
  -28.8059   21.7055  -42.9235 N   0  0  0  0  0  0  0  0  0  0  0  0
  -27.7525   19.5417  -49.9001 N   0  0  0  0  0  0  0  0  0  0  0  0
  -29.2460   20.4791  -45.1719 C   0  0  0  0  0  0  0  0  0  0  0  0
  -29.2517   18.5732  -46.6040 C   0  0  0  0  0  0  0  0  0  0  0  0
  -29.6800   19.2042  -45.4218 C   0  0  0  0  0  0  0  0  0  0  0  0
  -28.3835   21.1148  -46.1001 C   0  0  0  0  0  0  0  0  0  0  0  0
  -27.9828   20.4989  -47.2208 C   0  0  0  0  0  0  0  0  0  0  0  0
  -30.4801   18.3500  -44.5344 C   0  0  0  0  0  0  0  0  0  0  0  0
  -24.9253   23.0989  -51.4901 C   0  0  1  0  0  0  0  0  0  0  0  0
  -25.8640   23.1943  -52.6048 C   0  0  0  0  0  0  0  0  0  0  0  0
  -23.3590   24.3038  -49.9611 C   0  0  0  0  0  0  0  0  0  0  0  0
  -26.7457   23.1764  -54.6615 C   0  0  0  0  0  0  0  0  0  0  0  0
  -27.6973   23.4944  -53.7081 C   0  0  0  0  0  0  0  0  0  0  0  0
  -29.1454   23.7951  -53.9820 C   0  0  0  0  0  0  0  0  0  0  0  0
  -29.5546   21.2042  -43.9670 C   0  0  0  0  0  0  0  0  0  0  0  0
  -27.0178   20.5371  -49.5587 C   0  0  0  0  0  0  0  0  0  0  0  0
  -26.1604   21.0696  -50.5877 C   0  0  0  0  0  0  0  0  0  0  0  0
  -24.4655   24.4662  -50.9781 C   0  0  2  0  0  0  0  0  0  0  0  0
  -25.5741   25.2893  -50.4145 C   0  0  0  0  0  0  0  0  0  0  0  0
  -23.8517   25.2667  -52.1360 C   0  0  0  0  0  0  0  0  0  0  0  0
  -25.5876   22.9894  -53.9405 C   0  0  0  0  0  0  0  0  0  0  0  0
  -27.3167   21.5396  -42.9645 C   0  0  0  0  0  0  0  0  0  0  0  0
  -29.2586   22.4789  -41.8230 C   0  0  0  0  0  0  0  0  0  0  0  0
  -28.4249   19.1948  -47.4874 C   0  0  0  0  0  0  0  0  0  0  0  0
  -27.1106   21.0332  -48.1990 N   0  0  0  0  0  0  0  0  0  0  0  0
  -26.2276   20.4862  -51.7287 N   0  0  0  0  0  0  0  0  0  0  0  0
  -25.2664   22.2019  -50.4384 N   0  0  0  0  0  0  0  0  0  0  0  0
  -30.8449   21.4274  -43.8331 O   0  0  0  0  0  0  0  0  0  0  0  0
  -27.9641   22.4051  -45.8145 O   0  0  0  0  0  0  0  0  0  0  0  0
  -26.7856   17.8750  -51.7433 O   0  0  0  0  0  0  0  0  0  0  0  0
  -28.5820   19.4454  -52.4352 O   0  0  0  0  0  0  0  0  0  0  0  0
  -27.1281   23.4894  -52.5340 O   0  0  0  0  0  0  0  0  0  0  0  0
  -27.3899   19.2287  -51.5501 S   0  0  1  0  0  6  0  0  0  0  0  0
 15  1  1  0
  1 22  1  0
  1 23  1  0
 16  2  2  0
 33  2  1  1
  3  5  2  0
  6  3  1  0
  3 15  1  0
  4  5  1  0
 24  4  2  0
  5  8  1  0
  7  6  2  0
  6 29  1  0
  7 24  1  0
 25  7  1  0
  9 10  1  0
  9 18  1  0
  9 27  1  1
 10 21  2  0
 10 32  1  0
 18 11  1  1
 13 12  2  0
 21 12  1  0
 13 14  1  0
 32 13  1  0
 15 28  2  0
 17 16  1  0
 16 25  1  0
 17 26  2  0
 17 27  1  0
 18 19  1  0
 18 20  1  0
 26 33  1  0
 33 30  2  0
 33 31  2  0
M  END
$$$$
