
     RDKit          3D

 33 35  0  0  0  0  0  0  0  0999 V2000
  -23.2906   25.5169  -50.7199 N   0  0  0  0  0  0  0  0  0  0  0  0
  -27.2252   19.7488  -47.5440 N   0  0  0  0  0  0  0  0  0  0  0  0
  -23.8230   23.1566  -49.7719 C   0  0  0  0  0  0  0  0  0  0  0  0
  -23.5286   21.3276  -48.2713 C   0  0  0  0  0  0  0  0  0  0  0  0
  -22.9740   22.2954  -49.1285 C   0  0  0  0  0  0  0  0  0  0  0  0
  -25.2201   23.0438  -49.5601 C   0  0  0  0  0  0  0  0  0  0  0  0
  -25.7327   22.1147  -48.7418 C   0  0  0  0  0  0  0  0  0  0  0  0
  -21.5198   22.1872  -49.3044 C   0  0  0  0  0  0  0  0  0  0  0  0
  -29.5482   20.7120  -51.5084 C   0  0  1  0  0  0  0  0  0  0  0  0
  -29.8301   19.3579  -51.9770 C   0  0  0  0  0  0  0  0  0  0  0  0
  -29.7908   23.1619  -51.9350 C   0  0  0  0  0  0  0  0  0  0  0  0
  -30.0304   17.5456  -53.2743 C   0  0  0  0  0  0  0  0  0  0  0  0
  -30.4491   17.2878  -51.9805 C   0  0  0  0  0  0  0  0  0  0  0  0
  -30.9761   15.9725  -51.4760 C   0  0  0  0  0  0  0  0  0  0  0  0
  -23.3860   24.1415  -50.7268 C   0  0  0  0  0  0  0  0  0  0  0  0
  -27.7202   20.5939  -48.3735 C   0  0  0  0  0  0  0  0  0  0  0  0
  -28.8606   20.1406  -49.1296 C   0  0  0  0  0  0  0  0  0  0  0  0
  -30.3001   21.7860  -52.2986 C   0  0  2  0  0  0  0  0  0  0  0  0
  -31.7801   21.7168  -52.1285 C   0  0  0  0  0  0  0  0  0  0  0  0
  -30.0089   21.6173  -53.7970 C   0  0  0  0  0  0  0  0  0  0  0  0
  -29.6409   18.8661  -53.2517 C   0  0  0  0  0  0  0  0  0  0  0  0
  -23.4570   26.2411  -49.4181 C   0  0  0  0  0  0  0  0  0  0  0  0
  -22.9396   26.3683  -51.7998 C   0  0  0  0  0  0  0  0  0  0  0  0
  -24.8714   21.2308  -48.0756 C   0  0  0  0  0  0  0  0  0  0  0  0
  -27.1070   21.9041  -48.4773 N   0  0  0  0  0  0  0  0  0  0  0  0
  -29.2506   18.9421  -48.8888 N   0  0  0  0  0  0  0  0  0  0  0  0
  -29.5949   20.9276  -50.1018 N   0  0  0  0  0  0  0  0  0  0  0  0
  -23.0007   23.6010  -51.8634 O   0  0  0  0  0  0  0  0  0  0  0  0
  -26.0492   23.9321  -50.2279 O   0  0  0  0  0  0  0  0  0  0  0  0
  -27.3903   17.1638  -48.1767 O   0  0  0  0  0  0  0  0  0  0  0  0
  -28.9102   18.0189  -46.4073 O   0  0  0  0  0  0  0  0  0  0  0  0
  -30.3097   18.3755  -51.2734 O   0  0  0  0  0  0  0  0  0  0  0  0
  -28.1845   18.3303  -47.6832 S   0  0  1  0  0  6  0  0  0  0  0  0
 15  1  1  0
  1 22  1  0
  1 23  1  0
 16  2  2  0
 33  2  1  1
  3  5  2  0
  6  3  1  0
  3 15  1  0
  4  5  1  0
 24  4  2  0
  5  8  1  0
  7  6  2  0
  6 29  1  0
  7 24  1  0
 25  7  1  0
  9 10  1  0
  9 18  1  0
  9 27  1  1
 10 21  2  0
 10 32  1  0
 18 11  1  1
 13 12  2  0
 21 12  1  0
 13 14  1  0
 32 13  1  0
 15 28  2  0
 17 16  1  0
 16 25  1  0
 17 26  2  0
 17 27  1  0
 18 19  1  0
 18 20  1  0
 26 33  1  0
 33 30  2  0
 33 31  2  0
M  END
$$$$
