
     RDKit          3D

 33 35  0  0  0  0  0  0  0  0999 V2000
  -22.7327   25.8400  -50.8211 N   0  0  0  0  0  0  0  0  0  0  0  0
  -27.1057   20.7856  -47.8790 N   0  0  0  0  0  0  0  0  0  0  0  0
  -25.1041   24.8131  -50.5462 C   0  0  0  0  0  0  0  0  0  0  0  0
  -27.0790   24.6310  -49.2233 C   0  0  0  0  0  0  0  0  0  0  0  0
  -26.1191   25.4332  -49.8669 C   0  0  0  0  0  0  0  0  0  0  0  0
  -25.0500   23.3969  -50.5753 C   0  0  0  0  0  0  0  0  0  0  0  0
  -25.9712   22.6470  -49.9550 C   0  0  0  0  0  0  0  0  0  0  0  0
  -26.2795   26.8746  -49.6344 C   0  0  0  0  0  0  0  0  0  0  0  0
  -28.6181   17.8376  -51.4189 C   0  0  1  0  0  0  0  0  0  0  0  0
  -29.9205   17.7428  -50.7651 C   0  0  0  0  0  0  0  0  0  0  0  0
  -29.1915   19.1347  -53.4760 C   0  0  0  0  0  0  0  0  0  0  0  0
  -31.7156   16.9555  -49.6855 C   0  0  0  0  0  0  0  0  0  0  0  0
  -31.8559   18.3000  -49.9827 C   0  0  0  0  0  0  0  0  0  0  0  0
  -33.0462   19.1533  -49.6402 C   0  0  0  0  0  0  0  0  0  0  0  0
  -24.0237   25.5197  -51.1838 C   0  0  0  0  0  0  0  0  0  0  0  0
  -26.9422   20.4687  -49.1118 C   0  0  0  0  0  0  0  0  0  0  0  0
  -27.7342   19.3626  -49.5884 C   0  0  0  0  0  0  0  0  0  0  0  0
  -28.7128   17.8023  -52.9463 C   0  0  2  0  0  0  0  0  0  0  0  0
  -29.5740   16.6981  -53.4593 C   0  0  0  0  0  0  0  0  0  0  0  0
  -27.3122   17.5971  -53.5416 C   0  0  0  0  0  0  0  0  0  0  0  0
  -30.4794   16.6201  -50.1907 C   0  0  0  0  0  0  0  0  0  0  0  0
  -21.8700   26.5677  -51.8076 C   0  0  0  0  0  0  0  0  0  0  0  0
  -22.1167   25.6610  -49.5551 C   0  0  0  0  0  0  0  0  0  0  0  0
  -27.0166   23.2726  -49.2600 C   0  0  0  0  0  0  0  0  0  0  0  0
  -25.9985   21.2328  -49.9049 N   0  0  0  0  0  0  0  0  0  0  0  0
  -28.5118   18.8188  -48.7246 N   0  0  0  0  0  0  0  0  0  0  0  0
  -27.7331   18.8467  -50.9439 N   0  0  0  0  0  0  0  0  0  0  0  0
  -24.3523   25.9654  -52.3780 O   0  0  0  0  0  0  0  0  0  0  0  0
  -24.0086   22.8036  -51.2723 O   0  0  0  0  0  0  0  0  0  0  0  0
  -27.7150   18.8263  -46.1761 O   0  0  0  0  0  0  0  0  0  0  0  0
  -29.5271   20.3966  -46.8259 O   0  0  0  0  0  0  0  0  0  0  0  0
  -30.7839   18.7020  -50.6087 O   0  0  0  0  0  0  0  0  0  0  0  0
  -28.2758   19.6910  -47.2592 S   0  0  1  0  0  6  0  0  0  0  0  0
 15  1  1  0
  1 22  1  0
  1 23  1  0
 16  2  2  0
 33  2  1  6
  3  5  2  0
  6  3  1  0
  3 15  1  0
  4  5  1  0
 24  4  2  0
  5  8  1  0
  7  6  2  0
  6 29  1  0
  7 24  1  0
 25  7  1  0
  9 10  1  0
  9 18  1  0
  9 27  1  6
 10 21  2  0
 10 32  1  0
 18 11  1  6
 13 12  2  0
 21 12  1  0
 13 14  1  0
 32 13  1  0
 15 28  2  0
 17 16  1  0
 16 25  1  0
 17 26  2  0
 17 27  1  0
 18 19  1  0
 18 20  1  0
 26 33  1  0
 33 30  2  0
 33 31  2  0
M  END
$$$$
