
     RDKit          3D

 35 39  0  0  0  0  0  0  0  0999 V2000
   10.6577    0.2130   11.9624 C   0  0  0  0  0  0  0  0  0  0  0  0
   10.5159    1.3622    7.5852 C   0  0  0  0  0  0  0  0  0  0  0  0
   12.3765    1.4534    5.9835 C   0  0  0  0  0  0  0  0  0  0  0  0
   14.1440    1.5257    4.1320 C   0  0  0  0  0  0  0  0  0  0  0  0
   16.6245    1.7301    4.2678 C   0  0  0  0  0  0  0  0  0  0  0  0
   10.1734    1.2265    5.1573 C   0  0  0  0  0  0  0  0  0  0  0  0
   17.4493    2.8517   13.4838 Br  0  0  0  0  0  0  0  0  0  0  0  0
   16.1267    2.6524   14.8457 C   0  0  0  0  0  0  0  0  0  0  0  0
   14.8935    3.2384   14.6925 C   0  0  0  0  0  0  0  0  0  0  0  0
   13.9337    3.0963   15.6761 C   0  0  0  0  0  0  0  0  0  0  0  0
   12.3590    3.8648   15.4622 S   0  0  1  0  0  6  0  0  0  0  0  0
   11.8110    3.7730   13.8388 N   0  0  0  0  0  0  0  0  0  0  0  0
   11.4279    2.5603   13.2096 C   0  0  0  0  0  0  0  0  0  0  0  0
   11.3629    1.3763   13.9006 C   0  0  0  0  0  0  0  0  0  0  0  0
   10.9817    0.1895   13.3027 C   0  0  0  0  0  0  0  0  0  0  0  0
   10.2730   -0.9141   11.3022 F   0  0  0  0  0  0  0  0  0  0  0  0
   10.7025    1.3701   11.2123 C   0  0  0  0  0  0  0  0  0  0  0  0
   10.3624    1.3727    9.8236 N   0  0  0  0  0  0  0  0  0  0  0  0
   11.2118    1.3515    8.7752 C   0  0  0  0  0  0  0  0  0  0  0  0
   11.0261    1.3470    6.2259 C   0  0  0  0  0  0  0  0  0  0  0  0
   12.8826    1.4403    4.6786 C   0  0  0  0  0  0  0  0  0  0  0  0
   11.9372    1.3144    3.6728 C   0  0  0  0  0  0  0  0  0  0  0  0
   12.6618    1.3276    2.5382 N   0  0  0  0  0  0  0  0  0  0  0  0
   13.9457    1.4500    2.7929 N   0  0  0  0  0  0  0  0  0  0  0  0
   15.3462    1.6577    4.7701 O   0  0  0  0  0  0  0  0  0  0  0  0
   10.6145    1.2091    3.8842 N   0  0  0  0  0  0  0  0  0  0  0  0
    9.2077    1.3909    7.9782 N   0  0  0  0  0  0  0  0  0  0  0  0
    9.1548    1.3964    9.3070 N   0  0  0  0  0  0  0  0  0  0  0  0
   11.0896    2.5191   11.8639 C   0  0  0  0  0  0  0  0  0  0  0  0
   11.1616    3.7110   11.1964 F   0  0  0  0  0  0  0  0  0  0  0  0
   11.3790    3.1917   16.3879 O   0  0  0  0  0  0  0  0  0  0  0  0
   12.4597    5.3284   15.8684 O   0  0  0  0  0  0  0  0  0  0  0  0
   14.2563    2.3611   16.7897 C   0  0  0  0  0  0  0  0  0  0  0  0
   15.4953    1.7748   16.9390 C   0  0  0  0  0  0  0  0  0  0  0  0
   16.4537    1.9138   15.9618 C   0  0  0  0  0  0  0  0  0  0  0  0
  1 15  2  0
  1 16  1  0
 17  1  1  0
 19  2  2  0
  2 20  1  0
  2 27  1  0
 20  3  2  0
  3 21  1  0
 21  4  2  0
  4 24  1  0
  4 25  1  0
 25  5  1  0
 20  6  1  0
  6 26  2  0
  8  7  1  0
  9  8  2  0
  8 35  1  0
 10  9  1  0
 11 10  1  0
 10 33  2  0
 11 12  1  6
 11 31  2  0
 11 32  2  0
 13 12  1  0
 13 14  2  0
 29 13  1  0
 15 14  1  0
 18 17  1  0
 17 29  2  0
 18 19  1  0
 18 28  1  0
 21 22  1  0
 22 23  2  0
 22 26  1  0
 23 24  1  0
 27 28  2  0
 29 30  1  0
 33 34  1  0
 34 35  2  0
M  END
$$$$
