
     RDKit          3D

 35 39  0  0  0  0  0  0  0  0999 V2000
   11.6919    0.7237   12.3595 C   0  0  0  0  0  0  0  0  0  0  0  0
   10.3530    1.1683    8.1028 C   0  0  0  0  0  0  0  0  0  0  0  0
   11.9605    1.2821    6.2485 C   0  0  0  0  0  0  0  0  0  0  0  0
   13.4399    1.3766    4.1605 C   0  0  0  0  0  0  0  0  0  0  0  0
   15.9135    1.5873    3.9366 C   0  0  0  0  0  0  0  0  0  0  0  0
    9.6632    1.0348    5.7498 C   0  0  0  0  0  0  0  0  0  0  0  0
    5.0810    5.0175   14.1378 Br  0  0  0  0  0  0  0  0  0  0  0  0
    6.4424    4.2254   15.2161 C   0  0  0  0  0  0  0  0  0  0  0  0
    7.7416    4.6582   15.1047 C   0  0  0  0  0  0  0  0  0  0  0  0
    8.7296    4.0871   15.8836 C   0  0  0  0  0  0  0  0  0  0  0  0
   10.3934    4.6528   15.7179 S   0  0  1  0  0  6  0  0  0  0  0  0
   10.9863    4.4557   14.1198 N   0  0  0  0  0  0  0  0  0  0  0  0
   11.2362    3.1904   13.5284 C   0  0  0  0  0  0  0  0  0  0  0  0
   11.9337    2.2093   14.1876 C   0  0  0  0  0  0  0  0  0  0  0  0
   12.1759    0.9687   13.6275 C   0  0  0  0  0  0  0  0  0  0  0  0
   11.8891   -0.4729   11.7402 F   0  0  0  0  0  0  0  0  0  0  0  0
   10.9834    1.6674   11.6446 C   0  0  0  0  0  0  0  0  0  0  0  0
   10.4902    1.3929   10.3311 N   0  0  0  0  0  0  0  0  0  0  0  0
   11.1549    1.5292    9.1646 C   0  0  0  0  0  0  0  0  0  0  0  0
   10.6608    1.1615    6.6839 C   0  0  0  0  0  0  0  0  0  0  0  0
   12.2720    1.2772    4.8839 C   0  0  0  0  0  0  0  0  0  0  0  0
   11.1920    1.1441    4.0255 C   0  0  0  0  0  0  0  0  0  0  0  0
   11.7441    1.1673    2.7979 N   0  0  0  0  0  0  0  0  0  0  0  0
   13.0501    1.3021    2.8640 N   0  0  0  0  0  0  0  0  0  0  0  0
   14.7206    1.5194    4.6179 O   0  0  0  0  0  0  0  0  0  0  0  0
    9.9150    1.0248    4.4261 N   0  0  0  0  0  0  0  0  0  0  0  0
    9.1758    0.8098    8.6964 N   0  0  0  0  0  0  0  0  0  0  0  0
    9.2931    0.9550   10.0131 N   0  0  0  0  0  0  0  0  0  0  0  0
   10.7749    2.8830   12.2557 C   0  0  0  0  0  0  0  0  0  0  0  0
   10.0824    3.8761   11.6188 F   0  0  0  0  0  0  0  0  0  0  0  0
   10.4378    6.1040   16.1210 O   0  0  0  0  0  0  0  0  0  0  0  0
   11.2827    3.8720   16.6753 O   0  0  0  0  0  0  0  0  0  0  0  0
    8.3673    3.0901   16.7551 C   0  0  0  0  0  0  0  0  0  0  0  0
    7.0621    2.6592   16.8635 C   0  0  0  0  0  0  0  0  0  0  0  0
    6.0754    3.2253   16.0898 C   0  0  0  0  0  0  0  0  0  0  0  0
  1 15  2  0
  1 16  1  0
 17  1  1  0
 19  2  2  0
  2 20  1  0
  2 27  1  0
 20  3  2  0
  3 21  1  0
 21  4  2  0
  4 24  1  0
  4 25  1  0
 25  5  1  0
 20  6  1  0
  6 26  2  0
  8  7  1  0
  9  8  2  0
  8 35  1  0
 10  9  1  0
 11 10  1  0
 10 33  2  0
 11 12  1  6
 11 31  2  0
 11 32  2  0
 13 12  1  0
 13 14  2  0
 29 13  1  0
 15 14  1  0
 18 17  1  0
 17 29  2  0
 18 19  1  0
 18 28  1  0
 21 22  1  0
 22 23  2  0
 22 26  1  0
 23 24  1  0
 27 28  2  0
 29 30  1  0
 33 34  1  0
 34 35  2  0
M  END
$$$$
