
     RDKit          3D

 35 39  0  0  0  0  0  0  0  0999 V2000
   13.0301    1.8128   12.3422 C   0  0  0  0  0  0  0  0  0  0  0  0
   11.1729    1.2284    8.3485 C   0  0  0  0  0  0  0  0  0  0  0  0
   12.6439    1.2136    6.3809 C   0  0  0  0  0  0  0  0  0  0  0  0
   13.9707    1.1625    4.1913 C   0  0  0  0  0  0  0  0  0  0  0  0
   16.4220    1.3484    3.7793 C   0  0  0  0  0  0  0  0  0  0  0  0
   10.3190    0.9250    6.0662 C   0  0  0  0  0  0  0  0  0  0  0  0
    8.2879    0.5105   18.3292 Br  0  0  0  0  0  0  0  0  0  0  0  0
    8.1253    2.0485   17.2105 C   0  0  0  0  0  0  0  0  0  0  0  0
    9.2253    2.8338   16.9633 C   0  0  0  0  0  0  0  0  0  0  0  0
    9.1114    3.9478   16.1540 C   0  0  0  0  0  0  0  0  0  0  0  0
   10.5356    4.9473   15.8567 S   0  0  1  0  0  6  0  0  0  0  0  0
   10.9835    4.9566   14.2003 N   0  0  0  0  0  0  0  0  0  0  0  0
   11.6876    3.8958   13.5741 C   0  0  0  0  0  0  0  0  0  0  0  0
   12.8309    3.3663   14.1183 C   0  0  0  0  0  0  0  0  0  0  0  0
   13.5214    2.3261   13.5243 C   0  0  0  0  0  0  0  0  0  0  0  0
   13.6531    0.7885   11.6965 F   0  0  0  0  0  0  0  0  0  0  0  0
   11.8862    2.3005   11.7445 C   0  0  0  0  0  0  0  0  0  0  0  0
   11.3938    1.7537   10.5187 N   0  0  0  0  0  0  0  0  0  0  0  0
   11.9251    1.9020    9.2871 C   0  0  0  0  0  0  0  0  0  0  0  0
   11.3793    1.1209    6.9154 C   0  0  0  0  0  0  0  0  0  0  0  0
   12.8579    1.1119    5.0014 C   0  0  0  0  0  0  0  0  0  0  0  0
   11.7208    0.9149    4.2338 C   0  0  0  0  0  0  0  0  0  0  0  0
   12.1843    0.8517    2.9714 N   0  0  0  0  0  0  0  0  0  0  0  0
   13.4906    0.9944    2.9345 N   0  0  0  0  0  0  0  0  0  0  0  0
   15.2795    1.3411    4.5449 O   0  0  0  0  0  0  0  0  0  0  0  0
   10.4764    0.8211    4.7319 N   0  0  0  0  0  0  0  0  0  0  0  0
   10.1656    0.6707    9.0841 N   0  0  0  0  0  0  0  0  0  0  0  0
   10.3280    1.0020   10.3617 N   0  0  0  0  0  0  0  0  0  0  0  0
   11.2437    3.3363   12.3838 C   0  0  0  0  0  0  0  0  0  0  0  0
   10.1024    3.8802   11.8609 F   0  0  0  0  0  0  0  0  0  0  0  0
   10.2340    6.3460   16.3288 O   0  0  0  0  0  0  0  0  0  0  0  0
   11.6992    4.4141   16.6808 O   0  0  0  0  0  0  0  0  0  0  0  0
    7.8796    4.2319   15.6184 C   0  0  0  0  0  0  0  0  0  0  0  0
    6.7787    3.4408   15.8693 C   0  0  0  0  0  0  0  0  0  0  0  0
    6.8879    2.3306   16.6745 C   0  0  0  0  0  0  0  0  0  0  0  0
  1 15  2  0
  1 16  1  0
 17  1  1  0
 19  2  2  0
  2 20  1  0
  2 27  1  0
 20  3  2  0
  3 21  1  0
 21  4  2  0
  4 24  1  0
  4 25  1  0
 25  5  1  0
 20  6  1  0
  6 26  2  0
  8  7  1  0
  9  8  2  0
  8 35  1  0
 10  9  1  0
 11 10  1  0
 10 33  2  0
 11 12  1  6
 11 31  2  0
 11 32  2  0
 13 12  1  0
 13 14  2  0
 29 13  1  0
 15 14  1  0
 18 17  1  0
 17 29  2  0
 18 19  1  0
 18 28  1  0
 21 22  1  0
 22 23  2  0
 22 26  1  0
 23 24  1  0
 27 28  2  0
 29 30  1  0
 33 34  1  0
 34 35  2  0
M  END
$$$$
