
     RDKit          3D

 35 39  0  0  0  0  0  0  0  0999 V2000
   18.6408    3.2807    6.4974 C   0  0  0  0  0  0  0  0  0  0  0  0
   14.5094    1.3893    5.6424 C   0  0  0  0  0  0  0  0  0  0  0  0
   12.1646    1.7255    6.2937 C   0  0  0  0  0  0  0  0  0  0  0  0
    9.6574    1.9547    6.7617 C   0  0  0  0  0  0  0  0  0  0  0  0
    8.4711    2.8831    8.7476 C   0  0  0  0  0  0  0  0  0  0  0  0
   12.6334    0.5824    4.2786 C   0  0  0  0  0  0  0  0  0  0  0  0
   22.2512   -0.8182   12.9076 Br  0  0  0  0  0  0  0  0  0  0  0  0
   20.5752    0.0725   12.7053 C   0  0  0  0  0  0  0  0  0  0  0  0
   20.5443    1.4003   12.3534 C   0  0  0  0  0  0  0  0  0  0  0  0
   19.3330    2.0483   12.2061 C   0  0  0  0  0  0  0  0  0  0  0  0
   19.3170    3.7566   11.7618 S   0  0  1  0  0  6  0  0  0  0  0  0
   18.1316    4.1027   10.5704 N   0  0  0  0  0  0  0  0  0  0  0  0
   18.3095    3.8347    9.1885 C   0  0  0  0  0  0  0  0  0  0  0  0
   19.4278    4.2497    8.5096 C   0  0  0  0  0  0  0  0  0  0  0  0
   19.6188    3.9869    7.1657 C   0  0  0  0  0  0  0  0  0  0  0  0
   18.7556    2.9826    5.1737 F   0  0  0  0  0  0  0  0  0  0  0  0
   17.4941    2.8356    7.1224 C   0  0  0  0  0  0  0  0  0  0  0  0
   16.4923    2.1047    6.4109 N   0  0  0  0  0  0  0  0  0  0  0  0
   15.1558    2.2822    6.4702 C   0  0  0  0  0  0  0  0  0  0  0  0
   13.0866    1.2297    5.4007 C   0  0  0  0  0  0  0  0  0  0  0  0
   10.7900    1.5791    6.0738 C   0  0  0  0  0  0  0  0  0  0  0  0
   10.4393    0.9104    4.9115 C   0  0  0  0  0  0  0  0  0  0  0  0
    9.0932    0.9016    4.9318 N   0  0  0  0  0  0  0  0  0  0  0  0
    8.6277    1.5058    6.0026 N   0  0  0  0  0  0  0  0  0  0  0  0
    9.5602    2.6297    7.9470 O   0  0  0  0  0  0  0  0  0  0  0  0
   11.3203    0.4176    4.0248 N   0  0  0  0  0  0  0  0  0  0  0  0
   15.5294    0.6702    5.0863 N   0  0  0  0  0  0  0  0  0  0  0  0
   16.6864    1.1202    5.5631 N   0  0  0  0  0  0  0  0  0  0  0  0
   17.3617    3.1284    8.4608 C   0  0  0  0  0  0  0  0  0  0  0  0
   16.2562    2.7252    9.1586 F   0  0  0  0  0  0  0  0  0  0  0  0
   19.0621    4.5633   13.0086 O   0  0  0  0  0  0  0  0  0  0  0  0
   20.6872    4.1441   11.2235 O   0  0  0  0  0  0  0  0  0  0  0  0
   18.1855    1.3261   12.4215 C   0  0  0  0  0  0  0  0  0  0  0  0
   18.2215   -0.0062   12.7744 C   0  0  0  0  0  0  0  0  0  0  0  0
   19.4256   -0.6552   12.9220 C   0  0  0  0  0  0  0  0  0  0  0  0
  1 15  2  0
  1 16  1  0
 17  1  1  0
 19  2  2  0
  2 20  1  0
  2 27  1  0
 20  3  2  0
  3 21  1  0
 21  4  2  0
  4 24  1  0
  4 25  1  0
 25  5  1  0
 20  6  1  0
  6 26  2  0
  8  7  1  0
  9  8  2  0
  8 35  1  0
 10  9  1  0
 11 10  1  0
 10 33  2  0
 11 12  1  6
 11 31  2  0
 11 32  2  0
 13 12  1  0
 13 14  2  0
 29 13  1  0
 15 14  1  0
 18 17  1  0
 17 29  2  0
 18 19  1  0
 18 28  1  0
 21 22  1  0
 22 23  2  0
 22 26  1  0
 23 24  1  0
 27 28  2  0
 29 30  1  0
 33 34  1  0
 34 35  2  0
M  END
$$$$
