
     RDKit          3D

 35 39  0  0  0  0  0  0  0  0999 V2000
   11.1916    0.3008   11.9469 C   0  0  0  0  0  0  0  0  0  0  0  0
   10.4653    1.2004    7.6015 C   0  0  0  0  0  0  0  0  0  0  0  0
   12.2215    1.3076    5.8869 C   0  0  0  0  0  0  0  0  0  0  0  0
   13.8701    1.3877    3.9291 C   0  0  0  0  0  0  0  0  0  0  0  0
   16.3458    1.6763    3.9070 C   0  0  0  0  0  0  0  0  0  0  0  0
    9.9798    1.0005    5.2026 C   0  0  0  0  0  0  0  0  0  0  0  0
    6.2984    1.8943   17.3409 Br  0  0  0  0  0  0  0  0  0  0  0  0
    7.1102    3.2317   16.2475 C   0  0  0  0  0  0  0  0  0  0  0  0
    8.4795    3.3253   16.1845 C   0  0  0  0  0  0  0  0  0  0  0  0
    9.0706    4.2921   15.3941 C   0  0  0  0  0  0  0  0  0  0  0  0
   10.8315    4.3996   15.3347 S   0  0  1  0  0  6  0  0  0  0  0  0
   11.4465    4.0610   13.7690 N   0  0  0  0  0  0  0  0  0  0  0  0
   11.3697    2.7829   13.1576 C   0  0  0  0  0  0  0  0  0  0  0  0
   11.6792    1.6343   13.8420 C   0  0  0  0  0  0  0  0  0  0  0  0
   11.5992    0.3818   13.2619 C   0  0  0  0  0  0  0  0  0  0  0  0
   11.0876   -0.8958   11.3053 F   0  0  0  0  0  0  0  0  0  0  0  0
   10.8661    1.4174   11.2047 C   0  0  0  0  0  0  0  0  0  0  0  0
   10.4455    1.3113    9.8424 N   0  0  0  0  0  0  0  0  0  0  0  0
   11.2280    1.3261    8.7430 C   0  0  0  0  0  0  0  0  0  0  0  0
   10.8921    1.1690    6.2141 C   0  0  0  0  0  0  0  0  0  0  0  0
   12.6474    1.2793    4.5538 C   0  0  0  0  0  0  0  0  0  0  0  0
   11.6467    1.1044    3.6110 C   0  0  0  0  0  0  0  0  0  0  0  0
   12.3001    1.1124    2.4339 N   0  0  0  0  0  0  0  0  0  0  0  0
   13.5930    1.2763    2.6066 N   0  0  0  0  0  0  0  0  0  0  0  0
   15.1045    1.5677    4.4891 O   0  0  0  0  0  0  0  0  0  0  0  0
   10.3429    0.9669    3.9054 N   0  0  0  0  0  0  0  0  0  0  0  0
    9.1877    1.1098    8.0770 N   0  0  0  0  0  0  0  0  0  0  0  0
    9.2140    1.1789    9.4048 N   0  0  0  0  0  0  0  0  0  0  0  0
   10.9658    2.6356   11.8377 C   0  0  0  0  0  0  0  0  0  0  0  0
   10.6624    3.7941   11.1763 F   0  0  0  0  0  0  0  0  0  0  0  0
   11.2318    5.7856   15.7696 O   0  0  0  0  0  0  0  0  0  0  0  0
   11.4249    3.4069   16.3245 O   0  0  0  0  0  0  0  0  0  0  0  0
    8.2506    5.1380   14.6892 C   0  0  0  0  0  0  0  0  0  0  0  0
    6.8770    5.0402   14.7555 C   0  0  0  0  0  0  0  0  0  0  0  0
    6.2844    4.0788   15.5413 C   0  0  0  0  0  0  0  0  0  0  0  0
  1 15  2  0
  1 16  1  0
 17  1  1  0
 19  2  2  0
  2 20  1  0
  2 27  1  0
 20  3  2  0
  3 21  1  0
 21  4  2  0
  4 24  1  0
  4 25  1  0
 25  5  1  0
 20  6  1  0
  6 26  2  0
  8  7  1  0
  9  8  2  0
  8 35  1  0
 10  9  1  0
 11 10  1  0
 10 33  2  0
 11 12  1  6
 11 31  2  0
 11 32  2  0
 13 12  1  0
 13 14  2  0
 29 13  1  0
 15 14  1  0
 18 17  1  0
 17 29  2  0
 18 19  1  0
 18 28  1  0
 21 22  1  0
 22 23  2  0
 22 26  1  0
 23 24  1  0
 27 28  2  0
 29 30  1  0
 33 34  1  0
 34 35  2  0
M  END
$$$$
