
     RDKit          3D

 35 39  0  0  0  0  0  0  0  0999 V2000
   12.5269    2.9819   11.0959 C   0  0  0  0  0  0  0  0  0  0  0  0
   10.9352    1.1247    7.4817 C   0  0  0  0  0  0  0  0  0  0  0  0
   12.5023    1.1311    5.5897 C   0  0  0  0  0  0  0  0  0  0  0  0
   13.9428    1.0656    3.4736 C   0  0  0  0  0  0  0  0  0  0  0  0
   16.3548    1.5982    3.1394 C   0  0  0  0  0  0  0  0  0  0  0  0
   10.2493    0.5318    5.1996 C   0  0  0  0  0  0  0  0  0  0  0  0
    9.7996    6.9593   16.2419 Br  0  0  0  0  0  0  0  0  0  0  0  0
   10.8082    5.3723   16.5700 C   0  0  0  0  0  0  0  0  0  0  0  0
   10.3435    4.1608   16.1181 C   0  0  0  0  0  0  0  0  0  0  0  0
   11.0709    3.0101   16.3537 C   0  0  0  0  0  0  0  0  0  0  0  0
   10.4508    1.4633   15.7715 S   0  0  1  0  0  6  0  0  0  0  0  0
   11.4095    0.8200   14.5021 N   0  0  0  0  0  0  0  0  0  0  0  0
   11.7885    1.5628   13.3541 C   0  0  0  0  0  0  0  0  0  0  0  0
   12.6642    2.6167   13.4316 C   0  0  0  0  0  0  0  0  0  0  0  0
   13.0499    3.3427   12.3199 C   0  0  0  0  0  0  0  0  0  0  0  0
   12.8579    3.6476    9.9551 F   0  0  0  0  0  0  0  0  0  0  0  0
   11.6428    1.9326   10.9512 C   0  0  0  0  0  0  0  0  0  0  0  0
   11.1123    1.5748    9.6727 N   0  0  0  0  0  0  0  0  0  0  0  0
   11.7806    1.5041    8.5024 C   0  0  0  0  0  0  0  0  0  0  0  0
   11.2307    0.9265    6.0740 C   0  0  0  0  0  0  0  0  0  0  0  0
   12.8017    0.9440    4.2353 C   0  0  0  0  0  0  0  0  0  0  0  0
   11.7398    0.5453    3.4387 C   0  0  0  0  0  0  0  0  0  0  0  0
   12.2755    0.4368    2.2084 N   0  0  0  0  0  0  0  0  0  0  0  0
   13.5554    0.7368    2.2166 N   0  0  0  0  0  0  0  0  0  0  0  0
   15.1996    1.4333    3.8674 O   0  0  0  0  0  0  0  0  0  0  0  0
   10.4904    0.3392    3.8879 N   0  0  0  0  0  0  0  0  0  0  0  0
    9.7283    0.9727    8.1037 N   0  0  0  0  0  0  0  0  0  0  0  0
    9.8704    1.2468    9.3973 N   0  0  0  0  0  0  0  0  0  0  0  0
   11.2971    1.2485   12.0945 C   0  0  0  0  0  0  0  0  0  0  0  0
   10.4264    0.1945   12.0424 F   0  0  0  0  0  0  0  0  0  0  0  0
   10.4074    0.5073   16.9353 O   0  0  0  0  0  0  0  0  0  0  0  0
    9.0272    1.6551   15.2679 O   0  0  0  0  0  0  0  0  0  0  0  0
   12.2523    3.1244   17.0436 C   0  0  0  0  0  0  0  0  0  0  0  0
   12.7147    4.3424   17.4949 C   0  0  0  0  0  0  0  0  0  0  0  0
   11.9934    5.4906   17.2624 C   0  0  0  0  0  0  0  0  0  0  0  0
  1 15  2  0
  1 16  1  0
 17  1  1  0
 19  2  2  0
  2 20  1  0
  2 27  1  0
 20  3  2  0
  3 21  1  0
 21  4  2  0
  4 24  1  0
  4 25  1  0
 25  5  1  0
 20  6  1  0
  6 26  2  0
  8  7  1  0
  9  8  2  0
  8 35  1  0
 10  9  1  0
 11 10  1  0
 10 33  2  0
 11 12  1  6
 11 31  2  0
 11 32  2  0
 13 12  1  0
 13 14  2  0
 29 13  1  0
 15 14  1  0
 18 17  1  0
 17 29  2  0
 18 19  1  0
 18 28  1  0
 21 22  1  0
 22 23  2  0
 22 26  1  0
 23 24  1  0
 27 28  2  0
 29 30  1  0
 33 34  1  0
 34 35  2  0
M  END
$$$$
