
     RDKit          3D

 35 39  0  0  0  0  0  0  0  0999 V2000
   18.0375    3.9036    6.1398 C   0  0  0  0  0  0  0  0  0  0  0  0
   14.7072    1.1200    5.1715 C   0  0  0  0  0  0  0  0  0  0  0  0
   12.4761    1.1158    6.2000 C   0  0  0  0  0  0  0  0  0  0  0  0
   10.0614    1.0387    7.0487 C   0  0  0  0  0  0  0  0  0  0  0  0
    9.1788    1.3058    9.3645 C   0  0  0  0  0  0  0  0  0  0  0  0
   12.6808    0.5161    3.9228 C   0  0  0  0  0  0  0  0  0  0  0  0
   16.0655    4.0118   13.2001 Br  0  0  0  0  0  0  0  0  0  0  0  0
   17.2330    2.6242   12.6042 C   0  0  0  0  0  0  0  0  0  0  0  0
   18.3628    2.9409   11.8893 C   0  0  0  0  0  0  0  0  0  0  0  0
   19.2101    1.9391   11.4564 C   0  0  0  0  0  0  0  0  0  0  0  0
   20.6515    2.3681   10.5321 S   0  0  1  0  0  6  0  0  0  0  0  0
   20.5125    1.9298    8.8789 N   0  0  0  0  0  0  0  0  0  0  0  0
   19.6743    2.6088    7.9571 C   0  0  0  0  0  0  0  0  0  0  0  0
   19.8554    3.9357    7.6569 C   0  0  0  0  0  0  0  0  0  0  0  0
   19.0527    4.6071    6.7534 C   0  0  0  0  0  0  0  0  0  0  0  0
   17.2047    4.4941    5.2387 F   0  0  0  0  0  0  0  0  0  0  0  0
   17.8036    2.5686    6.3981 C   0  0  0  0  0  0  0  0  0  0  0  0
   16.7454    1.8577    5.7508 N   0  0  0  0  0  0  0  0  0  0  0  0
   15.4223    1.9644    5.9937 C   0  0  0  0  0  0  0  0  0  0  0  0
   13.2719    0.9145    5.0956 C   0  0  0  0  0  0  0  0  0  0  0  0
   11.0912    0.9217    6.1416 C   0  0  0  0  0  0  0  0  0  0  0  0
   10.5961    0.5197    4.9110 C   0  0  0  0  0  0  0  0  0  0  0  0
    9.2700    0.4047    5.1128 N   0  0  0  0  0  0  0  0  0  0  0  0
    8.9477    0.7039    6.3517 N   0  0  0  0  0  0  0  0  0  0  0  0
   10.1173    1.4075    8.3643 O   0  0  0  0  0  0  0  0  0  0  0  0
   11.3522    0.3168    3.8190 N   0  0  0  0  0  0  0  0  0  0  0  0
   15.6723    0.5042    4.4258 N   0  0  0  0  0  0  0  0  0  0  0  0
   16.8641    0.9644    4.7949 N   0  0  0  0  0  0  0  0  0  0  0  0
   18.6362    1.9559    7.3069 C   0  0  0  0  0  0  0  0  0  0  0  0
   18.4754    0.6344    7.6220 F   0  0  0  0  0  0  0  0  0  0  0  0
   20.8705    3.8528   10.6669 O   0  0  0  0  0  0  0  0  0  0  0  0
   21.8574    1.6590   11.1322 O   0  0  0  0  0  0  0  0  0  0  0  0
   18.8835    0.6415   11.7633 C   0  0  0  0  0  0  0  0  0  0  0  0
   17.7487    0.3286   12.4812 C   0  0  0  0  0  0  0  0  0  0  0  0
   16.9024    1.3231   12.9142 C   0  0  0  0  0  0  0  0  0  0  0  0
  1 15  2  0
  1 16  1  0
 17  1  1  0
 19  2  2  0
  2 20  1  0
  2 27  1  0
 20  3  2  0
  3 21  1  0
 21  4  2  0
  4 24  1  0
  4 25  1  0
 25  5  1  0
 20  6  1  0
  6 26  2  0
  8  7  1  0
  9  8  2  0
  8 35  1  0
 10  9  1  0
 11 10  1  0
 10 33  2  0
 11 12  1  6
 11 31  2  0
 11 32  2  0
 13 12  1  0
 13 14  2  0
 29 13  1  0
 15 14  1  0
 18 17  1  0
 17 29  2  0
 18 19  1  0
 18 28  1  0
 21 22  1  0
 22 23  2  0
 22 26  1  0
 23 24  1  0
 27 28  2  0
 29 30  1  0
 33 34  1  0
 34 35  2  0
M  END
$$$$
