
     RDKit          3D

 35 39  0  0  0  0  0  0  0  0999 V2000
   13.1514    3.4935   10.7270 C   0  0  0  0  0  0  0  0  0  0  0  0
   10.9937    1.4404    7.5291 C   0  0  0  0  0  0  0  0  0  0  0  0
   12.3136    1.0554    5.4932 C   0  0  0  0  0  0  0  0  0  0  0  0
   13.4730    0.5975    3.2563 C   0  0  0  0  0  0  0  0  0  0  0  0
   15.8758    0.7639    2.6145 C   0  0  0  0  0  0  0  0  0  0  0  0
    9.9711    0.7515    5.4055 C   0  0  0  0  0  0  0  0  0  0  0  0
    6.8704    2.8954   14.6989 Br  0  0  0  0  0  0  0  0  0  0  0  0
    8.4297    3.5841   15.5578 C   0  0  0  0  0  0  0  0  0  0  0  0
    9.6256    2.9177   15.4412 C   0  0  0  0  0  0  0  0  0  0  0  0
   10.7563    3.4132   16.0615 C   0  0  0  0  0  0  0  0  0  0  0  0
   12.2803    2.5363   15.9054 S   0  0  1  0  0  6  0  0  0  0  0  0
   12.3839    1.6810   14.4215 N   0  0  0  0  0  0  0  0  0  0  0  0
   12.6457    2.3058   13.1748 C   0  0  0  0  0  0  0  0  0  0  0  0
   13.5808    3.3023   13.0478 C   0  0  0  0  0  0  0  0  0  0  0  0
   13.8532    3.9128   11.8376 C   0  0  0  0  0  0  0  0  0  0  0  0
   13.3625    4.0454    9.5001 F   0  0  0  0  0  0  0  0  0  0  0  0
   12.1992    2.4969   10.7882 C   0  0  0  0  0  0  0  0  0  0  0  0
   11.4829    2.0769    9.6244 N   0  0  0  0  0  0  0  0  0  0  0  0
   11.9911    1.8238    8.4001 C   0  0  0  0  0  0  0  0  0  0  0  0
   11.0922    1.0781    6.1266 C   0  0  0  0  0  0  0  0  0  0  0  0
   12.4237    0.7081    4.1417 C   0  0  0  0  0  0  0  0  0  0  0  0
   11.2320    0.3960    3.5065 C   0  0  0  0  0  0  0  0  0  0  0  0
   11.5997    0.1034    2.2449 N   0  0  0  0  0  0  0  0  0  0  0  0
   12.9000    0.2172    2.0879 N   0  0  0  0  0  0  0  0  0  0  0  0
   14.8049    0.8156    3.4760 O   0  0  0  0  0  0  0  0  0  0  0  0
   10.0281    0.4109    4.1030 N   0  0  0  0  0  0  0  0  0  0  0  0
    9.8644    1.4780    8.2972 N   0  0  0  0  0  0  0  0  0  0  0  0
   10.1911    1.8581    9.5290 N   0  0  0  0  0  0  0  0  0  0  0  0
   11.9730    1.9279   12.0209 C   0  0  0  0  0  0  0  0  0  0  0  0
   11.0463    0.9329   12.1722 F   0  0  0  0  0  0  0  0  0  0  0  0
   13.4072    3.5298   16.0206 O   0  0  0  0  0  0  0  0  0  0  0  0
   12.4062    1.5477   17.0561 O   0  0  0  0  0  0  0  0  0  0  0  0
   10.6382    4.5745   16.7842 C   0  0  0  0  0  0  0  0  0  0  0  0
    9.4360    5.2398   16.8983 C   0  0  0  0  0  0  0  0  0  0  0  0
    8.3078    4.7497   16.2821 C   0  0  0  0  0  0  0  0  0  0  0  0
  1 15  2  0
  1 16  1  0
 17  1  1  0
 19  2  2  0
  2 20  1  0
  2 27  1  0
 20  3  2  0
  3 21  1  0
 21  4  2  0
  4 24  1  0
  4 25  1  0
 25  5  1  0
 20  6  1  0
  6 26  2  0
  8  7  1  0
  9  8  2  0
  8 35  1  0
 10  9  1  0
 11 10  1  0
 10 33  2  0
 11 12  1  6
 11 31  2  0
 11 32  2  0
 13 12  1  0
 13 14  2  0
 29 13  1  0
 15 14  1  0
 18 17  1  0
 17 29  2  0
 18 19  1  0
 18 28  1  0
 21 22  1  0
 22 23  2  0
 22 26  1  0
 23 24  1  0
 27 28  2  0
 29 30  1  0
 33 34  1  0
 34 35  2  0
M  END
$$$$
