
     RDKit          3D

 35 39  0  0  0  0  0  0  0  0999 V2000
   13.5990    2.3940   11.6117 C   0  0  0  0  0  0  0  0  0  0  0  0
   11.1606    1.7721    8.0465 C   0  0  0  0  0  0  0  0  0  0  0  0
   12.4932    1.5568    5.9938 C   0  0  0  0  0  0  0  0  0  0  0  0
   13.6656    1.2952    3.7324 C   0  0  0  0  0  0  0  0  0  0  0  0
   16.0906    1.3184    3.1564 C   0  0  0  0  0  0  0  0  0  0  0  0
   10.1435    1.3411    5.8533 C   0  0  0  0  0  0  0  0  0  0  0  0
    6.5554    2.0730   15.4800 Br  0  0  0  0  0  0  0  0  0  0  0  0
    8.3301    2.0622   16.1829 C   0  0  0  0  0  0  0  0  0  0  0  0
    9.1766    3.1118   15.9193 C   0  0  0  0  0  0  0  0  0  0  0  0
   10.4618    3.1075   16.4264 C   0  0  0  0  0  0  0  0  0  0  0  0
   11.5350    4.4623   16.0681 S   0  0  1  0  0  6  0  0  0  0  0  0
   11.6011    4.8069   14.3885 N   0  0  0  0  0  0  0  0  0  0  0  0
   12.2884    3.9951   13.4495 C   0  0  0  0  0  0  0  0  0  0  0  0
   13.5908    3.6085   13.6446 C   0  0  0  0  0  0  0  0  0  0  0  0
   14.2694    2.8095   12.7431 C   0  0  0  0  0  0  0  0  0  0  0  0
   14.1985    1.6058   10.6771 F   0  0  0  0  0  0  0  0  0  0  0  0
   12.2898    2.7477   11.3576 C   0  0  0  0  0  0  0  0  0  0  0  0
   11.6131    2.3059   10.1783 N   0  0  0  0  0  0  0  0  0  0  0  0
   12.1085    2.2535    8.9241 C   0  0  0  0  0  0  0  0  0  0  0  0
   11.2652    1.5540    6.6148 C   0  0  0  0  0  0  0  0  0  0  0  0
   12.6093    1.3480    4.6147 C   0  0  0  0  0  0  0  0  0  0  0  0
   11.4164    1.1428    3.9394 C   0  0  0  0  0  0  0  0  0  0  0  0
   11.7905    0.9706    2.6577 N   0  0  0  0  0  0  0  0  0  0  0  0
   13.0956    1.0571    2.5254 N   0  0  0  0  0  0  0  0  0  0  0  0
   15.0009    1.4453    3.9858 O   0  0  0  0  0  0  0  0  0  0  0  0
   10.2061    1.1356    4.5230 N   0  0  0  0  0  0  0  0  0  0  0  0
   10.0744    1.5401    8.8421 N   0  0  0  0  0  0  0  0  0  0  0  0
   10.3778    1.8667   10.0950 N   0  0  0  0  0  0  0  0  0  0  0  0
   11.6683    3.5445   12.2922 C   0  0  0  0  0  0  0  0  0  0  0  0
   10.3708    3.9424   12.1198 F   0  0  0  0  0  0  0  0  0  0  0  0
   11.0450    5.6640   16.8336 O   0  0  0  0  0  0  0  0  0  0  0  0
   12.9368    4.1311   16.5607 O   0  0  0  0  0  0  0  0  0  0  0  0
   10.8501    2.0335   17.1884 C   0  0  0  0  0  0  0  0  0  0  0  0
    9.9971    0.9825   17.4503 C   0  0  0  0  0  0  0  0  0  0  0  0
    8.7165    0.9831   16.9473 C   0  0  0  0  0  0  0  0  0  0  0  0
  1 15  2  0
  1 16  1  0
 17  1  1  0
 19  2  2  0
  2 20  1  0
  2 27  1  0
 20  3  2  0
  3 21  1  0
 21  4  2  0
  4 24  1  0
  4 25  1  0
 25  5  1  0
 20  6  1  0
  6 26  2  0
  8  7  1  0
  9  8  2  0
  8 35  1  0
 10  9  1  0
 11 10  1  0
 10 33  2  0
 11 12  1  6
 11 31  2  0
 11 32  2  0
 13 12  1  0
 13 14  2  0
 29 13  1  0
 15 14  1  0
 18 17  1  0
 17 29  2  0
 18 19  1  0
 18 28  1  0
 21 22  1  0
 22 23  2  0
 22 26  1  0
 23 24  1  0
 27 28  2  0
 29 30  1  0
 33 34  1  0
 34 35  2  0
M  END
$$$$
