
     RDKit          3D

 35 39  0  0  0  0  0  0  0  0999 V2000
   11.3422   -0.1177   11.4979 C   0  0  0  0  0  0  0  0  0  0  0  0
   10.5733    1.4853    7.4241 C   0  0  0  0  0  0  0  0  0  0  0  0
   12.1844    1.3330    5.5757 C   0  0  0  0  0  0  0  0  0  0  0  0
   13.6663    1.1754    3.4933 C   0  0  0  0  0  0  0  0  0  0  0  0
   16.1481    1.0979    3.2742 C   0  0  0  0  0  0  0  0  0  0  0  0
    9.8764    1.4076    5.0707 C   0  0  0  0  0  0  0  0  0  0  0  0
   16.9896    4.2454   10.5676 Br  0  0  0  0  0  0  0  0  0  0  0  0
   16.6233    3.2855   12.1763 C   0  0  0  0  0  0  0  0  0  0  0  0
   15.4710    3.5427   12.8790 C   0  0  0  0  0  0  0  0  0  0  0  0
   15.2025    2.8499   14.0438 C   0  0  0  0  0  0  0  0  0  0  0  0
   13.7202    3.2025   14.9350 S   0  0  1  0  0  6  0  0  0  0  0  0
   12.3320    3.1440   13.9280 N   0  0  0  0  0  0  0  0  0  0  0  0
   12.0056    2.0323   13.1091 C   0  0  0  0  0  0  0  0  0  0  0  0
   12.1328    0.7415   13.5580 C   0  0  0  0  0  0  0  0  0  0  0  0
   11.8090   -0.3507   12.7746 C   0  0  0  0  0  0  0  0  0  0  0  0
   11.0024   -1.1405   10.6656 F   0  0  0  0  0  0  0  0  0  0  0  0
   11.1914    1.1553   10.9878 C   0  0  0  0  0  0  0  0  0  0  0  0
   10.7055    1.3748    9.6612 N   0  0  0  0  0  0  0  0  0  0  0  0
   11.3648    1.1570    8.5040 C   0  0  0  0  0  0  0  0  0  0  0  0
   10.8798    1.4078    6.0070 C   0  0  0  0  0  0  0  0  0  0  0  0
   12.4948    1.2577    4.2129 C   0  0  0  0  0  0  0  0  0  0  0  0
   11.4086    1.2645    3.3520 C   0  0  0  0  0  0  0  0  0  0  0  0
   11.9609    1.1853    2.1267 N   0  0  0  0  0  0  0  0  0  0  0  0
   13.2726    1.1330    2.1966 N   0  0  0  0  0  0  0  0  0  0  0  0
   14.9533    1.1420    3.9541 O   0  0  0  0  0  0  0  0  0  0  0  0
   10.1269    1.3367    3.7486 N   0  0  0  0  0  0  0  0  0  0  0  0
    9.4080    1.9102    7.9971 N   0  0  0  0  0  0  0  0  0  0  0  0
    9.5220    1.8314    9.3197 N   0  0  0  0  0  0  0  0  0  0  0  0
   11.5305    2.2012   11.8158 C   0  0  0  0  0  0  0  0  0  0  0  0
   11.4120    3.4962   11.3909 F   0  0  0  0  0  0  0  0  0  0  0  0
   13.5991    2.2047   16.0576 O   0  0  0  0  0  0  0  0  0  0  0  0
   13.8270    4.5908   15.5501 O   0  0  0  0  0  0  0  0  0  0  0  0
   16.1155    1.9136   14.4616 C   0  0  0  0  0  0  0  0  0  0  0  0
   17.2705    1.6589   13.7530 C   0  0  0  0  0  0  0  0  0  0  0  0
   17.5415    2.3465   12.5926 C   0  0  0  0  0  0  0  0  0  0  0  0
  1 15  2  0
  1 16  1  0
 17  1  1  0
 19  2  2  0
  2 20  1  0
  2 27  1  0
 20  3  2  0
  3 21  1  0
 21  4  2  0
  4 24  1  0
  4 25  1  0
 25  5  1  0
 20  6  1  0
  6 26  2  0
  8  7  1  0
  9  8  2  0
  8 35  1  0
 10  9  1  0
 11 10  1  0
 10 33  2  0
 11 12  1  6
 11 31  2  0
 11 32  2  0
 13 12  1  0
 13 14  2  0
 29 13  1  0
 15 14  1  0
 18 17  1  0
 17 29  2  0
 18 19  1  0
 18 28  1  0
 21 22  1  0
 22 23  2  0
 22 26  1  0
 23 24  1  0
 27 28  2  0
 29 30  1  0
 33 34  1  0
 34 35  2  0
M  END
$$$$
