
     RDKit          3D

 35 39  0  0  0  0  0  0  0  0999 V2000
   14.0397    3.4472   11.1255 C   0  0  0  0  0  0  0  0  0  0  0  0
   11.1951    2.0859    8.1414 C   0  0  0  0  0  0  0  0  0  0  0  0
   12.2950    1.5616    6.0081 C   0  0  0  0  0  0  0  0  0  0  0  0
   13.2133    0.9590    3.6949 C   0  0  0  0  0  0  0  0  0  0  0  0
   15.5421    1.0312    2.8090 C   0  0  0  0  0  0  0  0  0  0  0  0
    9.9491    1.3197    6.1689 C   0  0  0  0  0  0  0  0  0  0  0  0
   18.5218   -0.0569   15.0153 Br  0  0  0  0  0  0  0  0  0  0  0  0
   17.3668    1.2955   15.7086 C   0  0  0  0  0  0  0  0  0  0  0  0
   16.0061    1.1056   15.6953 C   0  0  0  0  0  0  0  0  0  0  0  0
   15.1670    2.0823   16.1963 C   0  0  0  0  0  0  0  0  0  0  0  0
   13.4217    1.8209   16.1614 S   0  0  1  0  0  6  0  0  0  0  0  0
   12.6391    2.8390   15.0232 N   0  0  0  0  0  0  0  0  0  0  0  0
   13.1199    3.0548   13.7059 C   0  0  0  0  0  0  0  0  0  0  0  0
   14.3860    3.5274   13.4667 C   0  0  0  0  0  0  0  0  0  0  0  0
   14.8709    3.7328   12.1883 C   0  0  0  0  0  0  0  0  0  0  0  0
   14.4441    3.6230    9.8371 F   0  0  0  0  0  0  0  0  0  0  0  0
   12.7571    2.9694   11.2990 C   0  0  0  0  0  0  0  0  0  0  0  0
   11.9116    2.6795   10.1831 N   0  0  0  0  0  0  0  0  0  0  0  0
   12.2921    2.2618    8.9576 C   0  0  0  0  0  0  0  0  0  0  0  0
   11.1441    1.6506    6.7572 C   0  0  0  0  0  0  0  0  0  0  0  0
   12.2610    1.1436    4.6727 C   0  0  0  0  0  0  0  0  0  0  0  0
   11.0047    0.8334    4.1760 C   0  0  0  0  0  0  0  0  0  0  0  0
   11.2372    0.4673    2.9016 N   0  0  0  0  0  0  0  0  0  0  0  0
   12.5175    0.5364    2.6108 N   0  0  0  0  0  0  0  0  0  0  0  0
   14.5652    1.1504    3.7698 O   0  0  0  0  0  0  0  0  0  0  0  0
    9.8674    0.9123    4.8871 N   0  0  0  0  0  0  0  0  0  0  0  0
   10.1408    2.4204    8.9435 N   0  0  0  0  0  0  0  0  0  0  0  0
   10.6014    2.7658   10.1423 N   0  0  0  0  0  0  0  0  0  0  0  0
   12.3319    2.7859   12.5952 C   0  0  0  0  0  0  0  0  0  0  0  0
   11.0745    2.3157   12.8585 F   0  0  0  0  0  0  0  0  0  0  0  0
   13.1708    0.3721   15.8322 O   0  0  0  0  0  0  0  0  0  0  0  0
   12.8493    2.0942   17.5452 O   0  0  0  0  0  0  0  0  0  0  0  0
   15.7369    3.2264   16.6973 C   0  0  0  0  0  0  0  0  0  0  0  0
   17.1030    3.4123   16.7087 C   0  0  0  0  0  0  0  0  0  0  0  0
   17.9420    2.4422   16.2109 C   0  0  0  0  0  0  0  0  0  0  0  0
  1 15  2  0
  1 16  1  0
 17  1  1  0
 19  2  2  0
  2 20  1  0
  2 27  1  0
 20  3  2  0
  3 21  1  0
 21  4  2  0
  4 24  1  0
  4 25  1  0
 25  5  1  0
 20  6  1  0
  6 26  2  0
  8  7  1  0
  9  8  2  0
  8 35  1  0
 10  9  1  0
 11 10  1  0
 10 33  2  0
 11 12  1  6
 11 31  2  0
 11 32  2  0
 13 12  1  0
 13 14  2  0
 29 13  1  0
 15 14  1  0
 18 17  1  0
 17 29  2  0
 18 19  1  0
 18 28  1  0
 21 22  1  0
 22 23  2  0
 22 26  1  0
 23 24  1  0
 27 28  2  0
 29 30  1  0
 33 34  1  0
 34 35  2  0
M  END
$$$$
