
     RDKit          3D

 35 39  0  0  0  0  0  0  0  0999 V2000
   13.2161    3.7352   10.9275 C   0  0  0  0  0  0  0  0  0  0  0  0
   11.0820    1.7075    7.7005 C   0  0  0  0  0  0  0  0  0  0  0  0
   12.3913    1.4406    5.6389 C   0  0  0  0  0  0  0  0  0  0  0  0
   13.5414    1.0968    3.3770 C   0  0  0  0  0  0  0  0  0  0  0  0
   15.9340    1.3421    2.7227 C   0  0  0  0  0  0  0  0  0  0  0  0
   10.0677    1.0112    5.5752 C   0  0  0  0  0  0  0  0  0  0  0  0
    6.8313    2.8455   14.6486 Br  0  0  0  0  0  0  0  0  0  0  0  0
    8.3683    3.6659   15.4283 C   0  0  0  0  0  0  0  0  0  0  0  0
    9.5631    2.9883   15.4602 C   0  0  0  0  0  0  0  0  0  0  0  0
   10.6778    3.5789   16.0238 C   0  0  0  0  0  0  0  0  0  0  0  0
   12.2005    2.6869   16.0617 S   0  0  1  0  0  6  0  0  0  0  0  0
   12.4940    1.8481   14.5938 N   0  0  0  0  0  0  0  0  0  0  0  0
   12.7403    2.4981   13.3569 C   0  0  0  0  0  0  0  0  0  0  0  0
   13.6571    3.5131   13.2434 C   0  0  0  0  0  0  0  0  0  0  0  0
   13.9143    4.1484   12.0427 C   0  0  0  0  0  0  0  0  0  0  0  0
   13.4129    4.3111    9.7094 F   0  0  0  0  0  0  0  0  0  0  0  0
   12.2820    2.7209   10.9752 C   0  0  0  0  0  0  0  0  0  0  0  0
   11.5690    2.3076    9.8069 N   0  0  0  0  0  0  0  0  0  0  0  0
   12.0745    2.0998    8.5731 C   0  0  0  0  0  0  0  0  0  0  0  0
   11.1797    1.3825    6.2888 C   0  0  0  0  0  0  0  0  0  0  0  0
   12.5006    1.1301    4.2785 C   0  0  0  0  0  0  0  0  0  0  0  0
   11.3185    0.7675    3.6521 C   0  0  0  0  0  0  0  0  0  0  0  0
   11.6833    0.5237    2.3793 N   0  0  0  0  0  0  0  0  0  0  0  0
   12.9731    0.7118    2.2078 N   0  0  0  0  0  0  0  0  0  0  0  0
   14.8625    1.3824    3.5840 O   0  0  0  0  0  0  0  0  0  0  0  0
   10.1243    0.7034    4.2646 N   0  0  0  0  0  0  0  0  0  0  0  0
    9.9584    1.6922    8.4777 N   0  0  0  0  0  0  0  0  0  0  0  0
   10.2837    2.0520    9.7160 N   0  0  0  0  0  0  0  0  0  0  0  0
   12.0702    2.1276   12.1990 C   0  0  0  0  0  0  0  0  0  0  0  0
   11.1619    1.1139   12.3368 F   0  0  0  0  0  0  0  0  0  0  0  0
   13.3112    3.6664   16.3399 O   0  0  0  0  0  0  0  0  0  0  0  0
   12.1617    1.6834   17.2057 O   0  0  0  0  0  0  0  0  0  0  0  0
   10.5451    4.8441   16.5400 C   0  0  0  0  0  0  0  0  0  0  0  0
    9.3439    5.5202   16.5056 C   0  0  0  0  0  0  0  0  0  0  0  0
    8.2317    4.9356   15.9452 C   0  0  0  0  0  0  0  0  0  0  0  0
  1 15  2  0
  1 16  1  0
 17  1  1  0
 19  2  2  0
  2 20  1  0
  2 27  1  0
 20  3  2  0
  3 21  1  0
 21  4  2  0
  4 24  1  0
  4 25  1  0
 25  5  1  0
 20  6  1  0
  6 26  2  0
  8  7  1  0
  9  8  2  0
  8 35  1  0
 10  9  1  0
 11 10  1  0
 10 33  2  0
 11 12  1  6
 11 31  2  0
 11 32  2  0
 13 12  1  0
 13 14  2  0
 29 13  1  0
 15 14  1  0
 18 17  1  0
 17 29  2  0
 18 19  1  0
 18 28  1  0
 21 22  1  0
 22 23  2  0
 22 26  1  0
 23 24  1  0
 27 28  2  0
 29 30  1  0
 33 34  1  0
 34 35  2  0
M  END
$$$$
