
     RDKit          3D

 35 39  0  0  0  0  0  0  0  0999 V2000
   13.5870    3.9776   11.0342 C   0  0  0  0  0  0  0  0  0  0  0  0
   12.6565    1.7417    7.1725 C   0  0  0  0  0  0  0  0  0  0  0  0
   12.6763    1.2309    4.7695 C   0  0  0  0  0  0  0  0  0  0  0  0
   12.4459    0.7094    2.2731 C   0  0  0  0  0  0  0  0  0  0  0  0
   14.1910    0.3741    0.5251 C   0  0  0  0  0  0  0  0  0  0  0  0
   10.5968    1.5371    5.8510 C   0  0  0  0  0  0  0  0  0  0  0  0
    6.1067    5.6408   16.1485 Br  0  0  0  0  0  0  0  0  0  0  0  0
    7.0760    4.4634   15.0005 C   0  0  0  0  0  0  0  0  0  0  0  0
    8.2788    3.9427   15.4127 C   0  0  0  0  0  0  0  0  0  0  0  0
    8.9831    3.0901   14.5845 C   0  0  0  0  0  0  0  0  0  0  0  0
   10.5303    2.4396   15.1310 S   0  0  1  0  0  6  0  0  0  0  0  0
   11.4301    1.7471   13.8445 N   0  0  0  0  0  0  0  0  0  0  0  0
   12.1572    2.5132   12.8970 C   0  0  0  0  0  0  0  0  0  0  0  0
   12.7588    3.6996   13.2352 C   0  0  0  0  0  0  0  0  0  0  0  0
   13.4786    4.4512   12.3249 C   0  0  0  0  0  0  0  0  0  0  0  0
   14.2789    4.6599   10.0804 F   0  0  0  0  0  0  0  0  0  0  0  0
   13.0062    2.7927   10.6314 C   0  0  0  0  0  0  0  0  0  0  0  0
   13.1308    2.3195    9.2880 N   0  0  0  0  0  0  0  0  0  0  0  0
   12.1605    2.2537    8.3524 C   0  0  0  0  0  0  0  0  0  0  0  0
   11.9672    1.5007    5.9176 C   0  0  0  0  0  0  0  0  0  0  0  0
   12.0253    0.9966    3.5528 C   0  0  0  0  0  0  0  0  0  0  0  0
   10.6412    1.0566    3.5950 C   0  0  0  0  0  0  0  0  0  0  0  0
   10.2631    0.8016    2.3283 N   0  0  0  0  0  0  0  0  0  0  0  0
   11.3037    0.5983    1.5511 N   0  0  0  0  0  0  0  0  0  0  0  0
   13.7221    0.5629    1.8042 O   0  0  0  0  0  0  0  0  0  0  0  0
    9.9268    1.3180    4.7026 N   0  0  0  0  0  0  0  0  0  0  0  0
   13.9727    1.5055    7.4528 N   0  0  0  0  0  0  0  0  0  0  0  0
   14.2174    1.8586    8.7113 N   0  0  0  0  0  0  0  0  0  0  0  0
   12.3026    2.0899   11.5831 C   0  0  0  0  0  0  0  0  0  0  0  0
   11.6947    0.9050   11.2699 F   0  0  0  0  0  0  0  0  0  0  0  0
   11.3078    3.5576   15.7758 O   0  0  0  0  0  0  0  0  0  0  0  0
   10.2771    1.3733   16.1876 O   0  0  0  0  0  0  0  0  0  0  0  0
    8.4431    2.7911   13.3582 C   0  0  0  0  0  0  0  0  0  0  0  0
    7.2356    3.3160   12.9490 C   0  0  0  0  0  0  0  0  0  0  0  0
    6.5311    4.1652   13.7707 C   0  0  0  0  0  0  0  0  0  0  0  0
  1 15  2  0
  1 16  1  0
 17  1  1  0
 19  2  2  0
  2 20  1  0
  2 27  1  0
 20  3  2  0
  3 21  1  0
 21  4  2  0
  4 24  1  0
  4 25  1  0
 25  5  1  0
 20  6  1  0
  6 26  2  0
  8  7  1  0
  9  8  2  0
  8 35  1  0
 10  9  1  0
 11 10  1  0
 10 33  2  0
 11 12  1  6
 11 31  2  0
 11 32  2  0
 13 12  1  0
 13 14  2  0
 29 13  1  0
 15 14  1  0
 18 17  1  0
 17 29  2  0
 18 19  1  0
 18 28  1  0
 21 22  1  0
 22 23  2  0
 22 26  1  0
 23 24  1  0
 27 28  2  0
 29 30  1  0
 33 34  1  0
 34 35  2  0
M  END
$$$$
