
     RDKit          3D

 35 39  0  0  0  0  0  0  0  0999 V2000
   13.5301    3.9510   10.6054 C   0  0  0  0  0  0  0  0  0  0  0  0
   11.2553    1.8694    7.4396 C   0  0  0  0  0  0  0  0  0  0  0  0
   12.4690    1.2932    5.3828 C   0  0  0  0  0  0  0  0  0  0  0  0
   13.5116    0.6314    3.1395 C   0  0  0  0  0  0  0  0  0  0  0  0
   15.8800    0.7210    2.3677 C   0  0  0  0  0  0  0  0  0  0  0  0
   10.1202    1.0323    5.4293 C   0  0  0  0  0  0  0  0  0  0  0  0
    7.4471    2.2412   14.5776 Br  0  0  0  0  0  0  0  0  0  0  0  0
    8.9630    3.1393   15.3117 C   0  0  0  0  0  0  0  0  0  0  0  0
   10.2043    2.5543   15.2426 C   0  0  0  0  0  0  0  0  0  0  0  0
   11.3039    3.2015   15.7728 C   0  0  0  0  0  0  0  0  0  0  0  0
   12.8877    2.4277   15.6804 S   0  0  1  0  0  6  0  0  0  0  0  0
   13.1780    1.7333   14.1384 N   0  0  0  0  0  0  0  0  0  0  0  0
   13.2989    2.4949   12.9474 C   0  0  0  0  0  0  0  0  0  0  0  0
   14.1610    3.5587   12.8538 C   0  0  0  0  0  0  0  0  0  0  0  0
   14.2963    4.3032   11.6967 C   0  0  0  0  0  0  0  0  0  0  0  0
   13.6063    4.6350    9.4304 F   0  0  0  0  0  0  0  0  0  0  0  0
   12.6455    2.8926   10.6350 C   0  0  0  0  0  0  0  0  0  0  0  0
   11.8605    2.5441    9.4921 N   0  0  0  0  0  0  0  0  0  0  0  0
   12.3084    2.1030    8.2979 C   0  0  0  0  0  0  0  0  0  0  0  0
   11.2801    1.3927    6.0683 C   0  0  0  0  0  0  0  0  0  0  0  0
   12.5081    0.8353    4.0607 C   0  0  0  0  0  0  0  0  0  0  0  0
   11.2821    0.4978    3.5093 C   0  0  0  0  0  0  0  0  0  0  0  0
   11.5838    0.0964    2.2601 N   0  0  0  0  0  0  0  0  0  0  0  0
   12.8767    0.1698    2.0340 N   0  0  0  0  0  0  0  0  0  0  0  0
   14.8561    0.8386    3.2784 O   0  0  0  0  0  0  0  0  0  0  0  0
   10.1087    0.5862    4.1579 N   0  0  0  0  0  0  0  0  0  0  0  0
   10.1562    2.1939    8.1835 N   0  0  0  0  0  0  0  0  0  0  0  0
   10.5515    2.5882    9.3905 N   0  0  0  0  0  0  0  0  0  0  0  0
   12.5556    2.1901   11.8153 C   0  0  0  0  0  0  0  0  0  0  0  0
   11.7038    1.1260   11.9325 F   0  0  0  0  0  0  0  0  0  0  0  0
   13.9350    3.4636   15.9973 O   0  0  0  0  0  0  0  0  0  0  0  0
   12.9714    1.3362   16.7382 O   0  0  0  0  0  0  0  0  0  0  0  0
   11.1091    4.4273   16.3595 C   0  0  0  0  0  0  0  0  0  0  0  0
    9.8615    5.0103   16.4265 C   0  0  0  0  0  0  0  0  0  0  0  0
    8.7641    4.3693   15.8996 C   0  0  0  0  0  0  0  0  0  0  0  0
  1 15  2  0
  1 16  1  0
 17  1  1  0
 19  2  2  0
  2 20  1  0
  2 27  1  0
 20  3  2  0
  3 21  1  0
 21  4  2  0
  4 24  1  0
  4 25  1  0
 25  5  1  0
 20  6  1  0
  6 26  2  0
  8  7  1  0
  9  8  2  0
  8 35  1  0
 10  9  1  0
 11 10  1  0
 10 33  2  0
 11 12  1  6
 11 31  2  0
 11 32  2  0
 13 12  1  0
 13 14  2  0
 29 13  1  0
 15 14  1  0
 18 17  1  0
 17 29  2  0
 18 19  1  0
 18 28  1  0
 21 22  1  0
 22 23  2  0
 22 26  1  0
 23 24  1  0
 27 28  2  0
 29 30  1  0
 33 34  1  0
 34 35  2  0
M  END
$$$$
