
     RDKit          3D

 34 38  0  0  0  0  0  0  0  0999 V2000
  -11.8408   -7.4384   26.1646 C   0  0  0  0  0  0  0  0  0  0  0  0
  -13.5627   -8.3922   28.1183 C   0  0  0  0  0  0  0  0  0  0  0  0
  -12.3306   -6.7960   29.6355 C   0  0  0  0  0  0  0  0  0  0  0  0
   -9.2505   -3.4202   29.0131 C   0  0  0  0  0  0  0  0  0  0  0  0
   -9.3086   -2.0930   29.4393 C   0  0  0  0  0  0  0  0  0  0  0  0
  -10.1072   -1.2223   28.7297 C   0  0  0  0  0  0  0  0  0  0  0  0
   -9.4627    3.0477   29.7669 C   0  0  0  0  0  0  0  0  0  0  0  0
   -9.3382    3.9514   27.5451 C   0  0  2  0  0  0  0  0  0  0  0  0
  -13.4195  -11.5364   22.0010 N   0  0  0  0  0  0  0  0  0  0  0  0
  -13.1832  -10.3646   22.7531 C   0  0  0  0  0  0  0  0  0  0  0  0
  -12.9451   -9.1120   22.2833 N   0  0  0  0  0  0  0  0  0  0  0  0
  -12.7707   -8.2734   23.2891 N   0  0  0  0  0  0  0  0  0  0  0  0
  -12.8828   -8.9191   24.4639 C   0  0  0  0  0  0  0  0  0  0  0  0
  -13.1427  -10.2368   24.1275 C   0  0  0  0  0  0  0  0  0  0  0  0
  -13.3368  -11.2918   25.0850 C   0  0  0  0  0  0  0  0  0  0  0  0
  -13.5002  -12.1423   25.8489 N   0  0  0  0  0  0  0  0  0  0  0  0
  -12.7633   -8.3840   25.8246 C   0  0  0  0  0  0  0  0  0  0  0  0
  -11.7604   -6.9552   27.4729 C   0  0  0  0  0  0  0  0  0  0  0  0
  -12.6186   -7.4322   28.4415 C   0  0  0  0  0  0  0  0  0  0  0  0
  -13.6127   -8.8410   26.8315 C   0  0  0  0  0  0  0  0  0  0  0  0
  -11.2888   -5.9291   29.3784 C   0  0  0  0  0  0  0  0  0  0  0  0
  -10.9702   -6.0533   28.0572 N   0  0  0  0  0  0  0  0  0  0  0  0
   -9.9128   -5.2828   27.4472 C   0  0  0  0  0  0  0  0  0  0  0  0
   -9.9562   -3.8727   27.9239 C   0  0  0  0  0  0  0  0  0  0  0  0
  -10.1956    0.1921   29.1496 C   0  0  0  0  0  0  0  0  0  0  0  0
   -8.8686    0.7001   29.4456 N   0  0  2  0  0  4  0  0  0  0  0  0
   -8.9605    1.7717   30.4072 C   0  0  0  0  0  0  0  0  0  0  0  0
   -8.5984    3.5092   28.7093 N   0  0  2  0  0  4  0  0  0  0  0  0
   -8.4530    4.5928   26.5257 C   0  0  0  0  0  0  0  0  0  0  0  0
  -10.3512    4.9925   27.9956 C   0  0  0  0  0  0  0  0  0  0  0  0
   -7.6120    2.5098   28.4100 C   0  0  0  0  0  0  0  0  0  0  0  0
   -8.1900    1.1324   28.2374 C   0  0  0  0  0  0  0  0  0  0  0  0
  -10.8342   -1.6355   27.6277 C   0  0  0  0  0  0  0  0  0  0  0  0
  -10.7464   -2.9384   27.2493 C   0  0  0  0  0  0  0  0  0  0  0  0
  1 17  2  0
 18  1  1  0
 19  2  1  0
  2 20  2  0
  3 19  1  0
 21  3  2  0
  5  4  2  0
  4 24  1  0
  6  5  1  0
 25  6  1  0
  6 33  2  0
 27  7  1  0
 28  7  1  1
 28  8  1  0
  8 29  1  6
  8 30  1  0
 10  9  1  0
 10 11  1  0
 14 10  2  0
 12 11  1  0
 13 12  2  0
 13 14  1  0
 17 13  1  0
 14 15  1  0
 15 16  3  0
 17 20  1  0
 18 19  2  0
 22 18  1  0
 22 21  1  0
 23 22  1  0
 24 23  1  0
 24 34  2  0
 26 25  1  6
 26 27  1  0
 26 32  1  0
 28 31  1  0
 31 32  1  0
 33 34  1  0
M  CHG  2  26   1  28   1
M  END
$$$$
