
     RDKit          3D

 34 38  0  0  0  0  0  0  0  0999 V2000
  -12.6437   -8.2300   25.8514 C   0  0  0  0  0  0  0  0  0  0  0  0
  -14.0644   -9.9489   27.5003 C   0  0  0  0  0  0  0  0  0  0  0  0
  -13.8519   -8.0973   29.2014 C   0  0  0  0  0  0  0  0  0  0  0  0
  -11.5770   -4.0789   29.4255 C   0  0  0  0  0  0  0  0  0  0  0  0
  -11.8976   -2.9955   30.2441 C   0  0  0  0  0  0  0  0  0  0  0  0
  -13.0107   -2.2500   29.9204 C   0  0  0  0  0  0  0  0  0  0  0  0
  -13.3731    1.7364   31.7922 C   0  0  0  0  0  0  0  0  0  0  0  0
  -15.7081    2.0300   32.2718 C   0  0  2  0  0  0  0  0  0  0  0  0
  -13.4377  -11.4632   20.8092 N   0  0  0  0  0  0  0  0  0  0  0  0
  -12.9217  -10.8039   21.9466 C   0  0  0  0  0  0  0  0  0  0  0  0
  -11.6817  -10.2710   22.1045 N   0  0  0  0  0  0  0  0  0  0  0  0
  -11.5651   -9.7361   23.3068 N   0  0  0  0  0  0  0  0  0  0  0  0
  -12.7083   -9.8850   24.0001 C   0  0  0  0  0  0  0  0  0  0  0  0
  -13.5638  -10.5577   23.1441 C   0  0  0  0  0  0  0  0  0  0  0  0
  -14.9118  -10.9307   23.4778 C   0  0  0  0  0  0  0  0  0  0  0  0
  -15.9911  -11.2349   23.7536 N   0  0  0  0  0  0  0  0  0  0  0  0
  -13.0224   -9.4466   25.3644 C   0  0  0  0  0  0  0  0  0  0  0  0
  -12.9634   -7.8513   27.1576 C   0  0  0  0  0  0  0  0  0  0  0  0
  -13.6701   -8.7091   27.9742 C   0  0  0  0  0  0  0  0  0  0  0  0
  -13.7351  -10.2853   26.2204 C   0  0  0  0  0  0  0  0  0  0  0  0
  -13.2475   -6.8601   29.1180 C   0  0  0  0  0  0  0  0  0  0  0  0
  -12.7199   -6.7466   27.8645 N   0  0  0  0  0  0  0  0  0  0  0  0
  -12.0101   -5.5653   27.4348 C   0  0  0  0  0  0  0  0  0  0  0  0
  -12.3290   -4.4152   28.3252 C   0  0  0  0  0  0  0  0  0  0  0  0
  -13.3837   -1.0943   30.7629 C   0  0  0  0  0  0  0  0  0  0  0  0
  -13.3813    0.1170   29.9633 N   0  0  2  0  0  4  0  0  0  0  0  0
  -12.6108    1.1388   30.6294 C   0  0  0  0  0  0  0  0  0  0  0  0
  -14.6115    2.3493   31.3809 N   0  0  2  0  0  4  0  0  0  0  0  0
  -16.9962    2.6388   31.8199 C   0  0  0  0  0  0  0  0  0  0  0  0
  -15.3851    2.6018   33.6436 C   0  0  0  0  0  0  0  0  0  0  0  0
  -14.8841    2.0317   30.0075 C   0  0  0  0  0  0  0  0  0  0  0  0
  -14.7333    0.5694   29.6910 C   0  0  0  0  0  0  0  0  0  0  0  0
  -13.7953   -2.5533   28.8223 C   0  0  0  0  0  0  0  0  0  0  0  0
  -13.4441   -3.6183   28.0534 C   0  0  0  0  0  0  0  0  0  0  0  0
  1 17  2  0
 18  1  1  0
 19  2  1  0
  2 20  2  0
  3 19  1  0
 21  3  2  0
  5  4  2  0
  4 24  1  0
  6  5  1  0
 25  6  1  0
  6 33  2  0
 27  7  1  0
 28  7  1  1
 28  8  1  0
  8 29  1  6
  8 30  1  0
 10  9  1  0
 10 11  1  0
 14 10  2  0
 12 11  1  0
 13 12  2  0
 13 14  1  0
 17 13  1  0
 14 15  1  0
 15 16  3  0
 17 20  1  0
 18 19  2  0
 22 18  1  0
 22 21  1  0
 23 22  1  0
 24 23  1  0
 24 34  2  0
 26 25  1  1
 26 27  1  0
 26 32  1  0
 28 31  1  0
 31 32  1  0
 33 34  1  0
M  CHG  2  26   1  28   1
M  END
$$$$
