
     RDKit          3D

 34 38  0  0  0  0  0  0  0  0999 V2000
  -21.0120  -20.6298   11.5347 C   0  0  0  0  0  0  0  0  0  0  0  0
  -23.2162  -19.0361   10.9932 C   0  0  0  0  0  0  0  0  0  0  0  0
  -24.3449  -21.2188   10.4190 C   0  0  0  0  0  0  0  0  0  0  0  0
  -21.3566  -23.8384    8.5144 C   0  0  0  0  0  0  0  0  0  0  0  0
  -21.3260  -24.5648    7.3236 C   0  0  0  0  0  0  0  0  0  0  0  0
  -21.6793  -25.8962    7.3712 C   0  0  0  0  0  0  0  0  0  0  0  0
  -21.0278  -27.7163    3.3669 C   0  0  0  0  0  0  0  0  0  0  0  0
  -19.1790  -29.1701    3.8536 C   0  0  2  0  0  0  0  0  0  0  0  0
  -17.7413  -16.0561   13.8421 N   0  0  0  0  0  0  0  0  0  0  0  0
  -18.2605  -17.1621   13.1338 C   0  0  0  0  0  0  0  0  0  0  0  0
  -17.5648  -18.1687   12.5427 N   0  0  0  0  0  0  0  0  0  0  0  0
  -18.3954  -19.0247   11.9749 N   0  0  0  0  0  0  0  0  0  0  0  0
  -19.6699  -18.6347   12.1580 C   0  0  0  0  0  0  0  0  0  0  0  0
  -19.5860  -17.4612   12.8881 C   0  0  0  0  0  0  0  0  0  0  0  0
  -20.7237  -16.6910   13.3127 C   0  0  0  0  0  0  0  0  0  0  0  0
  -21.6432  -16.0791   13.6497 N   0  0  0  0  0  0  0  0  0  0  0  0
  -20.9057  -19.2802   11.7020 C   0  0  0  0  0  0  0  0  0  0  0  0
  -22.2081  -21.2046   11.0983 C   0  0  0  0  0  0  0  0  0  0  0  0
  -23.3019  -20.4084   10.8301 C   0  0  0  0  0  0  0  0  0  0  0  0
  -22.0331  -18.5095   11.4207 C   0  0  0  0  0  0  0  0  0  0  0  0
  -23.8699  -22.5136   10.4415 C   0  0  0  0  0  0  0  0  0  0  0  0
  -22.5712  -22.4655   10.8582 N   0  0  0  0  0  0  0  0  0  0  0  0
  -21.7651  -23.6550   10.9962 C   0  0  0  0  0  0  0  0  0  0  0  0
  -21.7234  -24.4062    9.7111 C   0  0  0  0  0  0  0  0  0  0  0  0
  -21.6596  -26.7000    6.1311 C   0  0  0  0  0  0  0  0  0  0  0  0
  -20.8753  -26.0191    5.1172 N   0  0  2  0  0  4  0  0  0  0  0  0
  -21.4046  -26.3188    3.8090 C   0  0  0  0  0  0  0  0  0  0  0  0
  -19.6002  -27.9030    3.2921 N   0  0  2  0  0  4  0  0  0  0  0  0
  -17.7379  -29.1590    4.2501 C   0  0  0  0  0  0  0  0  0  0  0  0
  -19.3552  -30.2415    2.7887 C   0  0  0  0  0  0  0  0  0  0  0  0
  -18.9265  -26.7739    3.8687 C   0  0  0  0  0  0  0  0  0  0  0  0
  -19.4713  -26.3749    5.2123 C   0  0  0  0  0  0  0  0  0  0  0  0
  -22.0548  -26.5074    8.5540 C   0  0  0  0  0  0  0  0  0  0  0  0
  -22.0698  -25.7597    9.6895 C   0  0  0  0  0  0  0  0  0  0  0  0
  1 17  2  0
 18  1  1  0
 19  2  1  0
  2 20  2  0
  3 19  1  0
 21  3  2  0
  5  4  2  0
  4 24  1  0
  6  5  1  0
 25  6  1  0
  6 33  2  0
 27  7  1  0
 28  7  1  1
 28  8  1  0
  8 29  1  6
  8 30  1  0
 10  9  1  0
 10 11  1  0
 14 10  2  0
 12 11  1  0
 13 12  2  0
 13 14  1  0
 17 13  1  0
 14 15  1  0
 15 16  3  0
 17 20  1  0
 18 19  2  0
 22 18  1  0
 22 21  1  0
 23 22  1  0
 24 23  1  0
 24 34  2  0
 26 25  1  1
 26 27  1  0
 26 32  1  0
 28 31  1  0
 31 32  1  0
 33 34  1  0
M  CHG  2  26   1  28   1
M  END
$$$$
