
     RDKit          3D

 34 38  0  0  0  0  0  0  0  0999 V2000
  -21.4481  -19.3957   10.6277 C   0  0  0  0  0  0  0  0  0  0  0  0
  -21.4979  -20.3940   13.2147 C   0  0  0  0  0  0  0  0  0  0  0  0
  -22.3628  -22.4984   12.1233 C   0  0  0  0  0  0  0  0  0  0  0  0
  -22.7701  -23.9326    7.6453 C   0  0  0  0  0  0  0  0  0  0  0  0
  -22.2679  -25.1012    7.0719 C   0  0  0  0  0  0  0  0  0  0  0  0
  -20.9056  -25.1940    6.8852 C   0  0  0  0  0  0  0  0  0  0  0  0
  -19.7690  -28.6653    4.3590 C   0  0  0  0  0  0  0  0  0  0  0  0
  -18.4498  -27.5096    2.7181 C   0  0  2  0  0  0  0  0  0  0  0  0
  -18.6050  -14.2614   12.1940 N   0  0  0  0  0  0  0  0  0  0  0  0
  -19.4708  -15.2659   11.7083 C   0  0  0  0  0  0  0  0  0  0  0  0
  -20.3170  -15.1894   10.6478 N   0  0  0  0  0  0  0  0  0  0  0  0
  -20.9657  -16.3305   10.4989 N   0  0  0  0  0  0  0  0  0  0  0  0
  -20.5876  -17.2123   11.4419 C   0  0  0  0  0  0  0  0  0  0  0  0
  -19.6457  -16.5427   12.2045 C   0  0  0  0  0  0  0  0  0  0  0  0
  -18.9681  -17.1147   13.3364 C   0  0  0  0  0  0  0  0  0  0  0  0
  -18.4308  -17.5808   14.2461 N   0  0  0  0  0  0  0  0  0  0  0  0
  -21.0464  -18.5898   11.6523 C   0  0  0  0  0  0  0  0  0  0  0  0
  -21.8781  -20.7023   10.8716 C   0  0  0  0  0  0  0  0  0  0  0  0
  -21.9013  -21.1949   12.1597 C   0  0  0  0  0  0  0  0  0  0  0  0
  -21.0843  -19.1239   12.9397 C   0  0  0  0  0  0  0  0  0  0  0  0
  -22.6184  -22.7887   10.7992 C   0  0  0  0  0  0  0  0  0  0  0  0
  -22.3127  -21.6762   10.0703 N   0  0  0  0  0  0  0  0  0  0  0  0
  -22.4643  -21.6334    8.6354 C   0  0  0  0  0  0  0  0  0  0  0  0
  -21.9558  -22.8912    8.0216 C   0  0  0  0  0  0  0  0  0  0  0  0
  -20.3345  -26.4159    6.2808 C   0  0  0  0  0  0  0  0  0  0  0  0
  -21.2198  -26.9094    5.2418 N   0  0  2  0  0  4  0  0  0  0  0  0
  -21.0501  -28.3343    5.0936 C   0  0  0  0  0  0  0  0  0  0  0  0
  -19.7342  -28.1007    3.0328 N   0  0  2  0  0  4  0  0  0  0  0  0
  -18.3788  -27.0386    1.3013 C   0  0  0  0  0  0  0  0  0  0  0  0
  -17.3804  -28.5751    2.9030 C   0  0  0  0  0  0  0  0  0  0  0  0
  -20.8349  -27.1962    2.8552 C   0  0  0  0  0  0  0  0  0  0  0  0
  -20.9929  -26.2177    3.9860 C   0  0  0  0  0  0  0  0  0  0  0  0
  -20.0499  -24.1699    7.2494 C   0  0  0  0  0  0  0  0  0  0  0  0
  -20.5846  -23.0498    7.8046 C   0  0  0  0  0  0  0  0  0  0  0  0
  1 17  2  0
 18  1  1  0
 19  2  1  0
  2 20  2  0
  3 19  1  0
 21  3  2  0
  5  4  2  0
  4 24  1  0
  6  5  1  0
 25  6  1  0
  6 33  2  0
 27  7  1  0
 28  7  1  1
 28  8  1  0
  8 29  1  6
  8 30  1  0
 10  9  1  0
 10 11  1  0
 14 10  2  0
 12 11  1  0
 13 12  2  0
 13 14  1  0
 17 13  1  0
 14 15  1  0
 15 16  3  0
 17 20  1  0
 18 19  2  0
 22 18  1  0
 22 21  1  0
 23 22  1  0
 24 23  1  0
 24 34  2  0
 26 25  1  1
 26 27  1  0
 26 32  1  0
 28 31  1  0
 31 32  1  0
 33 34  1  0
M  CHG  2  26   1  28   1
M  END
$$$$
