
     RDKit          3D

 34 38  0  0  0  0  0  0  0  0999 V2000
  -13.3884   -8.2862   26.3462 C   0  0  0  0  0  0  0  0  0  0  0  0
  -12.1514  -10.5234   27.4217 C   0  0  0  0  0  0  0  0  0  0  0  0
  -12.4259   -9.3147   29.6197 C   0  0  0  0  0  0  0  0  0  0  0  0
  -12.8317   -4.7247   30.2759 C   0  0  0  0  0  0  0  0  0  0  0  0
  -11.9089   -3.7154   30.5523 C   0  0  0  0  0  0  0  0  0  0  0  0
  -11.2215   -3.1625   29.4934 C   0  0  0  0  0  0  0  0  0  0  0  0
   -8.0943   -0.0034   29.3815 C   0  0  0  0  0  0  0  0  0  0  0  0
   -9.4448    1.9154   28.8689 C   0  0  2  0  0  0  0  0  0  0  0  0
  -13.6683  -10.7036   20.7581 N   0  0  0  0  0  0  0  0  0  0  0  0
  -13.5358   -9.9136   21.9212 C   0  0  0  0  0  0  0  0  0  0  0  0
  -13.6035   -8.5598   22.0160 N   0  0  0  0  0  0  0  0  0  0  0  0
  -13.4318   -8.1814   23.2700 N   0  0  0  0  0  0  0  0  0  0  0  0
  -13.2437   -9.2523   24.0623 C   0  0  0  0  0  0  0  0  0  0  0  0
  -13.3090  -10.3443   23.2135 C   0  0  0  0  0  0  0  0  0  0  0  0
  -13.1597  -11.7092   23.6405 C   0  0  0  0  0  0  0  0  0  0  0  0
  -13.0358  -12.8075   23.9748 N   0  0  0  0  0  0  0  0  0  0  0  0
  -13.0161   -9.2983   25.5108 C   0  0  0  0  0  0  0  0  0  0  0  0
  -13.1530   -8.3699   27.7207 C   0  0  0  0  0  0  0  0  0  0  0  0
  -12.5376   -9.4843   28.2514 C   0  0  0  0  0  0  0  0  0  0  0  0
  -12.3970  -10.4076   26.0852 C   0  0  0  0  0  0  0  0  0  0  0  0
  -12.9805   -8.0856   29.9106 C   0  0  0  0  0  0  0  0  0  0  0  0
  -13.4104   -7.5425   28.7348 N   0  0  0  0  0  0  0  0  0  0  0  0
  -14.0465   -6.2480   28.6746 C   0  0  0  0  0  0  0  0  0  0  0  0
  -13.0681   -5.1730   28.9983 C   0  0  0  0  0  0  0  0  0  0  0  0
  -10.2353   -2.0907   29.7449 C   0  0  0  0  0  0  0  0  0  0  0  0
   -9.4392   -1.8664   28.5521 N   0  0  2  0  0  4  0  0  0  0  0  0
   -8.1105   -1.4463   28.9252 C   0  0  0  0  0  0  0  0  0  0  0  0
   -8.5456    0.9028   28.3550 N   0  0  2  0  0  4  0  0  0  0  0  0
  -10.0211    2.7617   27.7800 C   0  0  0  0  0  0  0  0  0  0  0  0
   -8.6516    2.8288   29.7907 C   0  0  0  0  0  0  0  0  0  0  0  0
   -9.0930    0.1631   27.2530 C   0  0  0  0  0  0  0  0  0  0  0  0
  -10.0709   -0.8992   27.6732 C   0  0  0  0  0  0  0  0  0  0  0  0
  -11.4285   -3.5838   28.1921 C   0  0  0  0  0  0  0  0  0  0  0  0
  -12.3377   -4.5702   27.9708 C   0  0  0  0  0  0  0  0  0  0  0  0
  1 17  2  0
 18  1  1  0
 19  2  1  0
  2 20  2  0
  3 19  1  0
 21  3  2  0
  5  4  2  0
  4 24  1  0
  6  5  1  0
 25  6  1  0
  6 33  2  0
 27  7  1  0
 28  7  1  1
 28  8  1  0
  8 29  1  6
  8 30  1  0
 10  9  1  0
 10 11  1  0
 14 10  2  0
 12 11  1  0
 13 12  2  0
 13 14  1  0
 17 13  1  0
 14 15  1  0
 15 16  3  0
 17 20  1  0
 18 19  2  0
 22 18  1  0
 22 21  1  0
 23 22  1  0
 24 23  1  0
 24 34  2  0
 26 25  1  1
 26 27  1  0
 26 32  1  0
 28 31  1  0
 31 32  1  0
 33 34  1  0
M  CHG  2  26   1  28   1
M  END
$$$$
