
     RDKit          3D

 34 38  0  0  0  0  0  0  0  0999 V2000
  -20.5624  -18.9006   11.5688 C   0  0  0  0  0  0  0  0  0  0  0  0
  -19.8893  -19.8483   14.0868 C   0  0  0  0  0  0  0  0  0  0  0  0
  -21.4359  -21.7575   13.5117 C   0  0  0  0  0  0  0  0  0  0  0  0
  -23.5695  -22.8728    8.9554 C   0  0  0  0  0  0  0  0  0  0  0  0
  -23.4564  -24.1109    8.3223 C   0  0  0  0  0  0  0  0  0  0  0  0
  -22.2123  -24.7026    8.2807 C   0  0  0  0  0  0  0  0  0  0  0  0
  -22.2041  -28.2308    5.5852 C   0  0  0  0  0  0  0  0  0  0  0  0
  -19.8697  -28.7210    5.3047 C   0  0  2  0  0  0  0  0  0  0  0  0
  -19.1558  -13.6452   10.2959 N   0  0  0  0  0  0  0  0  0  0  0  0
  -18.8845  -14.8665   10.9512 C   0  0  0  0  0  0  0  0  0  0  0  0
  -17.6964  -15.2899   11.4569 N   0  0  0  0  0  0  0  0  0  0  0  0
  -17.8319  -16.4877   11.9974 N   0  0  0  0  0  0  0  0  0  0  0  0
  -19.1019  -16.9154   11.8794 C   0  0  0  0  0  0  0  0  0  0  0  0
  -19.7661  -15.8947   11.2204 C   0  0  0  0  0  0  0  0  0  0  0  0
  -21.1629  -15.9273   10.8805 C   0  0  0  0  0  0  0  0  0  0  0  0
  -22.2858  -15.9448   10.6118 N   0  0  0  0  0  0  0  0  0  0  0  0
  -19.6952  -18.1776   12.3343 C   0  0  0  0  0  0  0  0  0  0  0  0
  -21.1051  -20.0985   12.0401 C   0  0  0  0  0  0  0  0  0  0  0  0
  -20.7677  -20.5662   13.2929 C   0  0  0  0  0  0  0  0  0  0  0  0
  -19.3790  -18.6834   13.5946 C   0  0  0  0  0  0  0  0  0  0  0  0
  -22.1810  -22.0050   12.3775 C   0  0  0  0  0  0  0  0  0  0  0  0
  -21.9550  -20.9780   11.5077 N   0  0  0  0  0  0  0  0  0  0  0  0
  -22.5838  -20.9194   10.2096 C   0  0  0  0  0  0  0  0  0  0  0  0
  -22.4919  -22.2402    9.5279 C   0  0  0  0  0  0  0  0  0  0  0  0
  -22.0512  -26.0144    7.6190 C   0  0  0  0  0  0  0  0  0  0  0  0
  -22.2060  -25.8625    6.1839 N   0  0  2  0  0  4  0  0  0  0  0  0
  -23.0017  -26.9470    5.6624 C   0  0  0  0  0  0  0  0  0  0  0  0
  -21.0503  -28.1106    4.7290 N   0  0  2  0  0  4  0  0  0  0  0  0
  -18.7298  -28.7634    4.3388 C   0  0  0  0  0  0  0  0  0  0  0  0
  -20.2119  -30.1557    5.6759 C   0  0  0  0  0  0  0  0  0  0  0  0
  -20.8562  -26.7376    4.3568 C   0  0  0  0  0  0  0  0  0  0  0  0
  -20.9167  -25.7883    5.5214 C   0  0  0  0  0  0  0  0  0  0  0  0
  -21.1013  -24.1010    8.8441 C   0  0  0  0  0  0  0  0  0  0  0  0
  -21.2596  -22.8944    9.4505 C   0  0  0  0  0  0  0  0  0  0  0  0
  1 17  2  0
 18  1  1  0
 19  2  1  0
  2 20  2  0
  3 19  1  0
 21  3  2  0
  5  4  2  0
  4 24  1  0
  6  5  1  0
 25  6  1  0
  6 33  2  0
 27  7  1  0
 28  7  1  1
 28  8  1  0
  8 29  1  6
  8 30  1  0
 10  9  1  0
 10 11  1  0
 14 10  2  0
 12 11  1  0
 13 12  2  0
 13 14  1  0
 17 13  1  0
 14 15  1  0
 15 16  3  0
 17 20  1  0
 18 19  2  0
 22 18  1  0
 22 21  1  0
 23 22  1  0
 24 23  1  0
 24 34  2  0
 26 25  1  1
 26 27  1  0
 26 32  1  0
 28 31  1  0
 31 32  1  0
 33 34  1  0
M  CHG  2  26   1  28   1
M  END
$$$$
