
     RDKit          3D

 34 38  0  0  0  0  0  0  0  0999 V2000
  -17.4738  -23.5590    5.7860 C   0  0  0  0  0  0  0  0  0  0  0  0
  -16.5119  -25.3476    7.6749 C   0  0  0  0  0  0  0  0  0  0  0  0
  -18.9504  -25.7103    8.2133 C   0  0  0  0  0  0  0  0  0  0  0  0
  -22.9236  -23.8961    6.9065 C   0  0  0  0  0  0  0  0  0  0  0  0
  -24.0027  -23.5043    7.6994 C   0  0  0  0  0  0  0  0  0  0  0  0
  -23.9183  -22.2921    8.3498 C   0  0  0  0  0  0  0  0  0  0  0  0
  -26.6372  -20.1671   11.1282 C   0  0  0  0  0  0  0  0  0  0  0  0
  -26.8026  -18.1179    9.8865 C   0  0  2  0  0  0  0  0  0  0  0  0
  -12.0571  -22.6473    3.2066 N   0  0  0  0  0  0  0  0  0  0  0  0
  -13.3116  -22.5497    3.8482 C   0  0  0  0  0  0  0  0  0  0  0  0
  -14.1614  -21.4894    3.8501 N   0  0  0  0  0  0  0  0  0  0  0  0
  -15.2393  -21.7705    4.5602 N   0  0  0  0  0  0  0  0  0  0  0  0
  -15.1609  -23.0171    5.0599 C   0  0  0  0  0  0  0  0  0  0  0  0
  -13.9466  -23.5090    4.6119 C   0  0  0  0  0  0  0  0  0  0  0  0
  -13.4475  -24.8238    4.9119 C   0  0  0  0  0  0  0  0  0  0  0  0
  -13.0553  -25.8819    5.1568 N   0  0  0  0  0  0  0  0  0  0  0  0
  -16.1259  -23.7360    5.8989 C   0  0  0  0  0  0  0  0  0  0  0  0
  -18.3590  -24.2640    6.6052 C   0  0  0  0  0  0  0  0  0  0  0  0
  -17.8764  -25.1525    7.5433 C   0  0  0  0  0  0  0  0  0  0  0  0
  -15.6773  -24.6425    6.8586 C   0  0  0  0  0  0  0  0  0  0  0  0
  -20.0876  -25.1493    7.6703 C   0  0  0  0  0  0  0  0  0  0  0  0
  -19.6896  -24.2777    6.6986 N   0  0  0  0  0  0  0  0  0  0  0  0
  -20.6343  -23.5116    5.9211 C   0  0  0  0  0  0  0  0  0  0  0  0
  -21.7998  -23.1184    6.7603 C   0  0  0  0  0  0  0  0  0  0  0  0
  -25.0407  -21.8414    9.1993 C   0  0  0  0  0  0  0  0  0  0  0  0
  -24.5270  -21.1196   10.3490 N   0  0  2  0  0  4  0  0  0  0  0  0
  -25.5056  -21.1320   11.4090 C   0  0  0  0  0  0  0  0  0  0  0  0
  -26.1797  -18.8061   10.9985 N   0  0  2  0  0  4  0  0  0  0  0  0
  -26.3070  -16.7150    9.7437 C   0  0  0  0  0  0  0  0  0  0  0  0
  -28.2993  -18.0528   10.1488 C   0  0  0  0  0  0  0  0  0  0  0  0
  -24.7451  -18.7723   10.9562 C   0  0  0  0  0  0  0  0  0  0  0  0
  -24.1520  -19.7633    9.9932 C   0  0  0  0  0  0  0  0  0  0  0  0
  -22.8061  -21.4783    8.2305 C   0  0  0  0  0  0  0  0  0  0  0  0
  -21.7788  -21.9015    7.4468 C   0  0  0  0  0  0  0  0  0  0  0  0
  1 17  2  0
 18  1  1  0
 19  2  1  0
  2 20  2  0
  3 19  1  0
 21  3  2  0
  5  4  2  0
  4 24  1  0
  6  5  1  0
 25  6  1  0
  6 33  2  0
 27  7  1  0
 28  7  1  6
 28  8  1  0
  8 29  1  1
  8 30  1  0
 10  9  1  0
 10 11  1  0
 14 10  2  0
 12 11  1  0
 13 12  2  0
 13 14  1  0
 17 13  1  0
 14 15  1  0
 15 16  3  0
 17 20  1  0
 18 19  2  0
 22 18  1  0
 22 21  1  0
 23 22  1  0
 24 23  1  0
 24 34  2  0
 26 25  1  6
 26 27  1  0
 26 32  1  0
 28 31  1  0
 31 32  1  0
 33 34  1  0
M  CHG  2  26   1  28   1
M  END
$$$$
