
     RDKit          3D

 34 38  0  0  0  0  0  0  0  0999 V2000
  -21.5849  -19.4856   11.5043 C   0  0  0  0  0  0  0  0  0  0  0  0
  -24.2291  -18.7561   11.0945 C   0  0  0  0  0  0  0  0  0  0  0  0
  -24.5573  -21.1940   10.5315 C   0  0  0  0  0  0  0  0  0  0  0  0
  -20.7687  -23.7170    8.7472 C   0  0  0  0  0  0  0  0  0  0  0  0
  -20.8812  -24.7920    7.8650 C   0  0  0  0  0  0  0  0  0  0  0  0
  -21.6259  -25.8801    8.2661 C   0  0  0  0  0  0  0  0  0  0  0  0
  -19.5678  -27.8545    5.4726 C   0  0  0  0  0  0  0  0  0  0  0  0
  -20.7316  -29.4639    4.1220 C   0  0  2  0  0  0  0  0  0  0  0  0
  -18.0208  -15.9077   13.7913 N   0  0  0  0  0  0  0  0  0  0  0  0
  -19.2071  -16.1446   13.0624 C   0  0  0  0  0  0  0  0  0  0  0  0
  -19.9562  -15.2385   12.3810 N   0  0  0  0  0  0  0  0  0  0  0  0
  -20.9956  -15.8336   11.8234 N   0  0  0  0  0  0  0  0  0  0  0  0
  -20.9893  -17.1495   12.1030 C   0  0  0  0  0  0  0  0  0  0  0  0
  -19.8629  -17.3466   12.8836 C   0  0  0  0  0  0  0  0  0  0  0  0
  -19.4608  -18.6210   13.4144 C   0  0  0  0  0  0  0  0  0  0  0  0
  -19.1421  -19.6423   13.8490 N   0  0  0  0  0  0  0  0  0  0  0  0
  -21.9454  -18.1834   11.6920 C   0  0  0  0  0  0  0  0  0  0  0  0
  -22.5273  -20.4394   11.1124 C   0  0  0  0  0  0  0  0  0  0  0  0
  -23.8413  -20.0724   10.9097 C   0  0  0  0  0  0  0  0  0  0  0  0
  -23.2826  -17.8519   11.4772 C   0  0  0  0  0  0  0  0  0  0  0  0
  -23.6620  -22.2431   10.5078 C   0  0  0  0  0  0  0  0  0  0  0  0
  -22.4418  -21.7475   10.8655 N   0  0  0  0  0  0  0  0  0  0  0  0
  -21.2672  -22.5830   10.9440 C   0  0  0  0  0  0  0  0  0  0  0  0
  -21.3705  -23.7158    9.9830 C   0  0  0  0  0  0  0  0  0  0  0  0
  -21.7691  -27.0390    7.3600 C   0  0  0  0  0  0  0  0  0  0  0  0
  -20.7154  -28.0017    7.6240 N   0  0  2  0  0  4  0  0  0  0  0  0
  -19.5020  -27.5899    6.9612 C   0  0  0  0  0  0  0  0  0  0  0  0
  -19.7548  -29.2517    5.1703 N   0  0  2  0  0  4  0  0  0  0  0  0
  -21.1099  -30.9036    3.9878 C   0  0  0  0  0  0  0  0  0  0  0  0
  -20.1132  -29.0257    2.8034 C   0  0  0  0  0  0  0  0  0  0  0  0
  -20.0451  -29.9797    6.3733 C   0  0  0  0  0  0  0  0  0  0  0  0
  -21.1109  -29.3379    7.2178 C   0  0  0  0  0  0  0  0  0  0  0  0
  -22.2482  -25.9206    9.5009 C   0  0  0  0  0  0  0  0  0  0  0  0
  -22.1107  -24.8498   10.3274 C   0  0  0  0  0  0  0  0  0  0  0  0
  1 17  2  0
 18  1  1  0
 19  2  1  0
  2 20  2  0
  3 19  1  0
 21  3  2  0
  5  4  2  0
  4 24  1  0
  6  5  1  0
 25  6  1  0
  6 33  2  0
 27  7  1  0
 28  7  1  1
 28  8  1  0
  8 29  1  6
  8 30  1  0
 10  9  1  0
 10 11  1  0
 14 10  2  0
 12 11  1  0
 13 12  2  0
 13 14  1  0
 17 13  1  0
 14 15  1  0
 15 16  3  0
 17 20  1  0
 18 19  2  0
 22 18  1  0
 22 21  1  0
 23 22  1  0
 24 23  1  0
 24 34  2  0
 26 25  1  6
 26 27  1  0
 26 32  1  0
 28 31  1  0
 31 32  1  0
 33 34  1  0
M  CHG  2  26   1  28   1
M  END
$$$$
