
     RDKit          3D

 34 38  0  0  0  0  0  0  0  0999 V2000
  -21.0759  -20.5353   11.2041 C   0  0  0  0  0  0  0  0  0  0  0  0
  -23.5022  -19.2233   10.9156 C   0  0  0  0  0  0  0  0  0  0  0  0
  -24.2579  -21.3760    9.8374 C   0  0  0  0  0  0  0  0  0  0  0  0
  -20.9512  -23.4235    7.5040 C   0  0  0  0  0  0  0  0  0  0  0  0
  -20.9808  -24.0340    6.2498 C   0  0  0  0  0  0  0  0  0  0  0  0
  -21.4251  -25.3366    6.1770 C   0  0  0  0  0  0  0  0  0  0  0  0
  -19.0011  -27.0955    3.5210 C   0  0  0  0  0  0  0  0  0  0  0  0
  -19.8880  -27.6293    1.3538 C   0  0  2  0  0  0  0  0  0  0  0  0
  -18.2606  -15.5821   13.3678 N   0  0  0  0  0  0  0  0  0  0  0  0
  -18.7730  -16.8621   13.0620 C   0  0  0  0  0  0  0  0  0  0  0  0
  -18.2232  -18.0683   13.3608 N   0  0  0  0  0  0  0  0  0  0  0  0
  -18.9927  -19.0438   12.9123 N   0  0  0  0  0  0  0  0  0  0  0  0
  -20.0799  -18.5409   12.3000 C   0  0  0  0  0  0  0  0  0  0  0  0
  -19.9426  -17.1663   12.3938 C   0  0  0  0  0  0  0  0  0  0  0  0
  -20.8899  -16.2220   11.8661 C   0  0  0  0  0  0  0  0  0  0  0  0
  -21.6442  -15.4608   11.4357 N   0  0  0  0  0  0  0  0  0  0  0  0
  -21.1905  -19.2549   11.6607 C   0  0  0  0  0  0  0  0  0  0  0  0
  -22.1589  -21.1793   10.6008 C   0  0  0  0  0  0  0  0  0  0  0  0
  -23.3638  -20.5233   10.4593 C   0  0  0  0  0  0  0  0  0  0  0  0
  -22.4243  -18.6257   11.4993 C   0  0  0  0  0  0  0  0  0  0  0  0
  -23.5805  -22.5549    9.6043 C   0  0  0  0  0  0  0  0  0  0  0  0
  -22.3113  -22.3981   10.0806 N   0  0  0  0  0  0  0  0  0  0  0  0
  -21.3253  -23.4493    9.9979 C   0  0  0  0  0  0  0  0  0  0  0  0
  -21.3465  -24.0761    8.6473 C   0  0  0  0  0  0  0  0  0  0  0  0
  -21.4714  -26.0185    4.8665 C   0  0  0  0  0  0  0  0  0  0  0  0
  -20.9331  -27.3606    4.9922 N   0  0  2  0  0  4  0  0  0  0  0  0
  -19.4923  -27.3148    4.9356 C   0  0  0  0  0  0  0  0  0  0  0  0
  -19.4208  -28.1438    2.6246 N   0  0  2  0  0  4  0  0  0  0  0  0
  -20.4227  -28.7104    0.4709 C   0  0  0  0  0  0  0  0  0  0  0  0
  -18.7067  -26.9926    0.6380 C   0  0  0  0  0  0  0  0  0  0  0  0
  -20.3739  -28.9959    3.2778 C   0  0  0  0  0  0  0  0  0  0  0  0
  -21.4733  -28.2409    3.9723 C   0  0  0  0  0  0  0  0  0  0  0  0
  -21.8322  -26.0305    7.3024 C   0  0  0  0  0  0  0  0  0  0  0  0
  -21.7859  -25.3947    8.5034 C   0  0  0  0  0  0  0  0  0  0  0  0
  1 17  2  0
 18  1  1  0
 19  2  1  0
  2 20  2  0
  3 19  1  0
 21  3  2  0
  5  4  2  0
  4 24  1  0
  6  5  1  0
 25  6  1  0
  6 33  2  0
 27  7  1  0
 28  7  1  1
 28  8  1  0
  8 29  1  6
  8 30  1  0
 10  9  1  0
 10 11  1  0
 14 10  2  0
 12 11  1  0
 13 12  2  0
 13 14  1  0
 17 13  1  0
 14 15  1  0
 15 16  3  0
 17 20  1  0
 18 19  2  0
 22 18  1  0
 22 21  1  0
 23 22  1  0
 24 23  1  0
 24 34  2  0
 26 25  1  6
 26 27  1  0
 26 32  1  0
 28 31  1  0
 31 32  1  0
 33 34  1  0
M  CHG  2  26   1  28   1
M  END
$$$$
