
     RDKit          3D

 34 38  0  0  0  0  0  0  0  0999 V2000
  -21.0850  -18.6722   11.2306 C   0  0  0  0  0  0  0  0  0  0  0  0
  -21.8806  -18.7077   13.8872 C   0  0  0  0  0  0  0  0  0  0  0  0
  -23.4632  -20.5227   13.1331 C   0  0  0  0  0  0  0  0  0  0  0  0
  -23.9661  -22.9800    9.1272 C   0  0  0  0  0  0  0  0  0  0  0  0
  -23.9956  -24.3667    8.9759 C   0  0  0  0  0  0  0  0  0  0  0  0
  -22.8200  -25.0610    9.1645 C   0  0  0  0  0  0  0  0  0  0  0  0
  -22.5135  -29.2494    7.7497 C   0  0  0  0  0  0  0  0  0  0  0  0
  -20.1662  -29.2352    7.2411 C   0  0  2  0  0  0  0  0  0  0  0  0
  -16.2483  -15.1675   12.0469 N   0  0  0  0  0  0  0  0  0  0  0  0
  -17.5141  -15.6887   11.6994 C   0  0  0  0  0  0  0  0  0  0  0  0
  -18.2771  -15.3641   10.6228 N   0  0  0  0  0  0  0  0  0  0  0  0
  -19.3995  -16.0606   10.6329 N   0  0  0  0  0  0  0  0  0  0  0  0
  -19.4383  -16.8736   11.7040 C   0  0  0  0  0  0  0  0  0  0  0  0
  -18.2509  -16.6401   12.3767 C   0  0  0  0  0  0  0  0  0  0  0  0
  -17.8686  -17.3025   13.5944 C   0  0  0  0  0  0  0  0  0  0  0  0
  -17.5651  -17.8270   14.5774 N   0  0  0  0  0  0  0  0  0  0  0  0
  -20.4876  -17.8158   12.1083 C   0  0  0  0  0  0  0  0  0  0  0  0
  -22.0809  -19.5541   11.6571 C   0  0  0  0  0  0  0  0  0  0  0  0
  -22.4736  -19.5685   12.9792 C   0  0  0  0  0  0  0  0  0  0  0  0
  -20.9119  -17.8605   13.4358 C   0  0  0  0  0  0  0  0  0  0  0  0
  -23.6646  -21.0852   11.8898 C   0  0  0  0  0  0  0  0  0  0  0  0
  -22.8091  -20.4728   11.0206 N   0  0  0  0  0  0  0  0  0  0  0  0
  -22.7558  -20.8233    9.6212 C   0  0  0  0  0  0  0  0  0  0  0  0
  -22.8160  -22.3017    9.4535 C   0  0  0  0  0  0  0  0  0  0  0  0
  -22.8100  -26.5313    9.0131 C   0  0  0  0  0  0  0  0  0  0  0  0
  -23.1196  -26.8856    7.6401 N   0  0  2  0  0  4  0  0  0  0  0  0
  -23.6254  -28.2356    7.5876 C   0  0  0  0  0  0  0  0  0  0  0  0
  -21.5132  -29.1381    6.7174 N   0  0  2  0  0  4  0  0  0  0  0  0
  -19.1427  -29.3006    6.1537 C   0  0  0  0  0  0  0  0  0  0  0  0
  -20.0636  -30.5206    8.0475 C   0  0  0  0  0  0  0  0  0  0  0  0
  -21.7375  -27.9505    5.9425 C   0  0  0  0  0  0  0  0  0  0  0  0
  -21.9607  -26.7227    6.7814 C   0  0  0  0  0  0  0  0  0  0  0  0
  -21.6402  -24.4183    9.4936 C   0  0  0  0  0  0  0  0  0  0  0  0
  -21.6595  -23.0657    9.6306 C   0  0  0  0  0  0  0  0  0  0  0  0
  1 17  2  0
 18  1  1  0
 19  2  1  0
  2 20  2  0
  3 19  1  0
 21  3  2  0
  5  4  2  0
  4 24  1  0
  6  5  1  0
 25  6  1  0
  6 33  2  0
 27  7  1  0
 28  7  1  1
 28  8  1  0
  8 29  1  6
  8 30  1  0
 10  9  1  0
 10 11  1  0
 14 10  2  0
 12 11  1  0
 13 12  2  0
 13 14  1  0
 17 13  1  0
 14 15  1  0
 15 16  3  0
 17 20  1  0
 18 19  2  0
 22 18  1  0
 22 21  1  0
 23 22  1  0
 24 23  1  0
 24 34  2  0
 26 25  1  1
 26 27  1  0
 26 32  1  0
 28 31  1  0
 31 32  1  0
 33 34  1  0
M  CHG  2  26   1  28   1
M  END
$$$$
