
     RDKit          3D

 34 38  0  0  0  0  0  0  0  0999 V2000
  -19.6564  -17.5213   13.1789 C   0  0  0  0  0  0  0  0  0  0  0  0
  -18.0879  -19.5527   12.1278 C   0  0  0  0  0  0  0  0  0  0  0  0
  -20.2868  -20.7466   11.8005 C   0  0  0  0  0  0  0  0  0  0  0  0
  -24.4665  -17.8999   11.3472 C   0  0  0  0  0  0  0  0  0  0  0  0
  -25.5581  -18.2732   10.5626 C   0  0  0  0  0  0  0  0  0  0  0  0
  -26.0286  -19.5629   10.6841 C   0  0  0  0  0  0  0  0  0  0  0  0
  -30.0069  -20.5968    9.0096 C   0  0  0  0  0  0  0  0  0  0  0  0
  -30.8486  -18.3678    8.7067 C   0  0  2  0  0  0  0  0  0  0  0  0
  -14.8857  -14.2335   15.0238 N   0  0  0  0  0  0  0  0  0  0  0  0
  -16.0800  -14.7443   14.4695 C   0  0  0  0  0  0  0  0  0  0  0  0
  -17.2116  -14.0574   14.1624 N   0  0  0  0  0  0  0  0  0  0  0  0
  -18.1195  -14.8755   13.6610 N   0  0  0  0  0  0  0  0  0  0  0  0
  -17.6426  -16.1324   13.6103 C   0  0  0  0  0  0  0  0  0  0  0  0
  -16.3576  -16.0510   14.1195 C   0  0  0  0  0  0  0  0  0  0  0  0
  -15.4687  -17.1734   14.2522 C   0  0  0  0  0  0  0  0  0  0  0  0
  -14.7480  -18.0689   14.3622 N   0  0  0  0  0  0  0  0  0  0  0  0
  -18.3040  -17.3503   13.1292 C   0  0  0  0  0  0  0  0  0  0  0  0
  -20.2465  -18.6975   12.7097 C   0  0  0  0  0  0  0  0  0  0  0  0
  -19.4628  -19.7052   12.1878 C   0  0  0  0  0  0  0  0  0  0  0  0
  -17.5462  -18.3916   12.5948 C   0  0  0  0  0  0  0  0  0  0  0  0
  -21.5773  -20.3576   12.0939 C   0  0  0  0  0  0  0  0  0  0  0  0
  -21.5133  -19.1102   12.6437 N   0  0  0  0  0  0  0  0  0  0  0  0
  -22.6942  -18.3983   13.0708 C   0  0  0  0  0  0  0  0  0  0  0  0
  -23.8599  -18.7696   12.2219 C   0  0  0  0  0  0  0  0  0  0  0  0
  -27.1834  -19.9969    9.8701 C   0  0  0  0  0  0  0  0  0  0  0  0
  -28.3026  -20.3167   10.7371 N   0  0  2  0  0  4  0  0  0  0  0  0
  -29.1718  -21.2632   10.0814 C   0  0  0  0  0  0  0  0  0  0  0  0
  -30.8497  -19.5535    9.5387 N   0  0  2  0  0  4  0  0  0  0  0  0
  -31.5497  -17.2208    9.3601 C   0  0  0  0  0  0  0  0  0  0  0  0
  -31.5944  -18.6911    7.4212 C   0  0  0  0  0  0  0  0  0  0  0  0
  -30.5027  -19.2884   10.9064 C   0  0  0  0  0  0  0  0  0  0  0  0
  -29.0248  -19.1191   11.1260 C   0  0  0  0  0  0  0  0  0  0  0  0
  -25.4481  -20.4704   11.5519 C   0  0  0  0  0  0  0  0  0  0  0  0
  -24.3864  -20.0618   12.2965 C   0  0  0  0  0  0  0  0  0  0  0  0
  1 17  2  0
 18  1  1  0
 19  2  1  0
  2 20  2  0
  3 19  1  0
 21  3  2  0
  5  4  2  0
  4 24  1  0
  6  5  1  0
 25  6  1  0
  6 33  2  0
 27  7  1  0
 28  7  1  6
 28  8  1  0
  8 29  1  1
  8 30  1  0
 10  9  1  0
 10 11  1  0
 14 10  2  0
 12 11  1  0
 13 12  2  0
 13 14  1  0
 17 13  1  0
 14 15  1  0
 15 16  3  0
 17 20  1  0
 18 19  2  0
 22 18  1  0
 22 21  1  0
 23 22  1  0
 24 23  1  0
 24 34  2  0
 26 25  1  6
 26 27  1  0
 26 32  1  0
 28 31  1  0
 31 32  1  0
 33 34  1  0
M  CHG  2  26   1  28   1
M  END
$$$$
