
     RDKit          3D

 34 38  0  0  0  0  0  0  0  0999 V2000
  -20.7017  -20.7822   10.9983 C   0  0  0  0  0  0  0  0  0  0  0  0
  -23.3734  -20.2581   10.4701 C   0  0  0  0  0  0  0  0  0  0  0  0
  -23.1567  -22.1355    8.7980 C   0  0  0  0  0  0  0  0  0  0  0  0
  -19.2907  -24.1602    6.8770 C   0  0  0  0  0  0  0  0  0  0  0  0
  -19.3298  -25.2228    5.9737 C   0  0  0  0  0  0  0  0  0  0  0  0
  -19.8584  -26.4192    6.4080 C   0  0  0  0  0  0  0  0  0  0  0  0
  -20.8768  -29.5938    3.4680 C   0  0  0  0  0  0  0  0  0  0  0  0
  -20.4616  -28.4014    1.4249 C   0  0  2  0  0  0  0  0  0  0  0  0
  -19.9709  -15.9374   14.5771 N   0  0  0  0  0  0  0  0  0  0  0  0
  -20.0476  -17.2233   13.9984 C   0  0  0  0  0  0  0  0  0  0  0  0
  -19.3161  -18.3223   14.3204 N   0  0  0  0  0  0  0  0  0  0  0  0
  -19.6695  -19.3438   13.5609 N   0  0  0  0  0  0  0  0  0  0  0  0
  -20.6422  -18.9792   12.7060 C   0  0  0  0  0  0  0  0  0  0  0  0
  -20.8812  -17.6434   12.9808 C   0  0  0  0  0  0  0  0  0  0  0  0
  -21.8562  -16.8395   12.2946 C   0  0  0  0  0  0  0  0  0  0  0  0
  -22.6458  -16.2007   11.7451 N   0  0  0  0  0  0  0  0  0  0  0  0
  -21.3268  -19.7867   11.6905 C   0  0  0  0  0  0  0  0  0  0  0  0
  -21.3907  -21.5279   10.0388 C   0  0  0  0  0  0  0  0  0  0  0  0
  -22.7193  -21.2640    9.7791 C   0  0  0  0  0  0  0  0  0  0  0  0
  -22.6698  -19.5504   11.3996 C   0  0  0  0  0  0  0  0  0  0  0  0
  -22.0781  -22.9293    8.4672 C   0  0  0  0  0  0  0  0  0  0  0  0
  -21.0257  -22.5318    9.2397 N   0  0  0  0  0  0  0  0  0  0  0  0
  -19.7280  -23.1575    9.1494 C   0  0  0  0  0  0  0  0  0  0  0  0
  -19.7573  -24.2743    8.1648 C   0  0  0  0  0  0  0  0  0  0  0  0
  -19.9175  -27.5689    5.4810 C   0  0  0  0  0  0  0  0  0  0  0  0
  -21.2921  -27.8058    5.0798 N   0  0  2  0  0  4  0  0  0  0  0  0
  -21.4831  -29.2081    4.7999 C   0  0  0  0  0  0  0  0  0  0  0  0
  -21.4583  -28.8658    2.3678 N   0  0  2  0  0  4  0  0  0  0  0  0
  -21.0779  -27.8551    0.1776 C   0  0  0  0  0  0  0  0  0  0  0  0
  -19.5958  -29.5875    1.0291 C   0  0  0  0  0  0  0  0  0  0  0  0
  -22.3027  -27.8165    2.8651 C   0  0  0  0  0  0  0  0  0  0  0  0
  -21.6549  -26.9860    3.9383 C   0  0  0  0  0  0  0  0  0  0  0  0
  -20.3391  -26.5776    7.6954 C   0  0  0  0  0  0  0  0  0  0  0  0
  -20.2804  -25.5143    8.5408 C   0  0  0  0  0  0  0  0  0  0  0  0
  1 17  2  0
 18  1  1  0
 19  2  1  0
  2 20  2  0
  3 19  1  0
 21  3  2  0
  5  4  2  0
  4 24  1  0
  6  5  1  0
 25  6  1  0
  6 33  2  0
 27  7  1  0
 28  7  1  1
 28  8  1  0
  8 29  1  6
  8 30  1  0
 10  9  1  0
 10 11  1  0
 14 10  2  0
 12 11  1  0
 13 12  2  0
 13 14  1  0
 17 13  1  0
 14 15  1  0
 15 16  3  0
 17 20  1  0
 18 19  2  0
 22 18  1  0
 22 21  1  0
 23 22  1  0
 24 23  1  0
 24 34  2  0
 26 25  1  6
 26 27  1  0
 26 32  1  0
 28 31  1  0
 31 32  1  0
 33 34  1  0
M  CHG  2  26   1  28   1
M  END
$$$$
