
     RDKit          3D

 74 75  0  0  0  0  0  0  0  0999 V2000
   19.8089   42.6891    9.6058 N   0  0  0  0  0  4  0  0  0  0  0  0
   18.7980   42.9796   10.6112 C   0  0  2  0  0  0  0  0  0  0  0  0
   18.4271   41.7046   11.2896 C   0  0  0  0  0  0  0  0  0  0  0  0
   18.8036   40.6506   10.7726 O   0  0  0  0  0  0  0  0  0  0  0  0
   17.5957   43.5502    9.8588 C   0  0  0  0  0  0  0  0  0  0  0  0
   18.0035   44.3769    8.8357 O   0  0  0  0  0  0  0  0  0  0  0  0
   17.6692   41.7348   12.4838 N   0  0  0  0  0  0  0  0  0  0  0  0
   17.0957   40.6517   13.1856 C   0  0  2  0  0  0  0  0  0  0  0  0
   15.8194   40.1764   12.6371 C   0  0  0  0  0  0  0  0  0  0  0  0
   15.7635   39.2562   11.7484 O   0  0  0  0  0  0  0  0  0  0  0  0
   17.1515   40.7021   14.6989 C   0  0  0  0  0  0  0  0  0  0  0  0
   18.4768   41.0837   15.2581 C   0  0  1  0  0  0  0  0  0  0  0  0
   18.2033   42.0822   16.3926 C   0  0  0  0  0  0  0  0  0  0  0  0
   19.1140   39.8483   15.9442 C   0  0  0  0  0  0  0  0  0  0  0  0
   14.5758   40.6928   13.0465 N   0  0  0  0  0  0  0  0  0  0  0  0
   13.3161   40.2443   12.4952 C   0  0  2  0  0  0  0  0  0  0  0  0
   12.9577   41.1458   11.3982 C   0  0  0  0  0  0  0  0  0  0  0  0
   13.8814   41.8345   10.8452 O   0  0  0  0  0  0  0  0  0  0  0  0
   12.2191   40.3320   13.5470 C   0  0  0  0  0  0  0  0  0  0  0  0
   12.7272   40.9608   14.7845 C   0  0  0  0  0  0  0  0  0  0  0  0
   13.9281   40.6065   15.3433 O   0  0  0  0  0  0  0  0  0  0  0  0
   12.0309   41.8499   15.3402 O   0  0  0  0  0  0  0  0  0  0  0  0
   11.6494   41.2992   10.9168 N   0  0  0  0  0  0  0  0  0  0  0  0
   11.3992   42.1697    9.7415 C   0  0  2  0  0  0  0  0  0  0  0  0
   11.5039   43.5863   10.1388 C   0  0  0  0  0  0  0  0  0  0  0  0
   12.4795   43.9289   10.8624 O   0  0  0  0  0  0  0  0  0  0  0  0
   10.0329   41.7608    9.2595 C   0  0  0  0  0  0  0  0  0  0  0  0
    9.9284   40.4514    8.8861 O   0  0  0  0  0  0  0  0  0  0  0  0
   10.5672   44.5763    9.7371 N   0  0  0  0  0  0  0  0  0  0  0  0
   10.9918   45.8117    9.1821 C   0  0  1  0  0  0  0  0  0  0  0  0
   12.4888   45.7399    8.7806 C   0  0  0  0  0  0  0  0  0  0  0  0
   12.6658   45.7580    7.4250 O   0  0  0  0  0  0  0  0  0  0  0  0
   10.2268   46.3312    8.0417 C   0  0  0  0  0  0  0  0  0  0  0  0
   10.1578   45.5177    7.0481 O   0  0  0  0  0  0  0  0  0  0  0  0
   14.3081   46.1364    7.1243 P   0  0  1  0  0  5  0  0  0  0  0  0
   14.7403   45.3459    5.9154 O   0  0  0  0  0  0  0  0  0  0  0  0
   14.3927   47.8122    6.7930 O   0  0  0  0  0  0  0  0  0  0  0  0
   15.2474   45.8344    8.4768 O   0  0  0  0  0  0  0  0  0  0  0  0
    9.6013   47.5568    7.9522 N   0  0  0  0  0  0  0  0  0  0  0  0
    8.6156   48.1481    7.0931 C   0  0  2  0  0  0  0  0  0  0  0  0
    7.7595   47.3096    6.3170 C   0  0  0  0  0  0  0  0  0  0  0  0
    7.4572   46.0913    6.6024 O   0  0  0  0  0  0  0  0  0  0  0  0
    9.4668   49.1864    6.4112 C   0  0  0  0  0  0  0  0  0  0  0  0
   10.1524   49.7954    7.6464 C   0  0  0  0  0  0  0  0  0  0  0  0
   10.0048   48.7371    8.7650 C   0  0  0  0  0  0  0  0  0  0  0  0
    7.1475   47.8218    5.1106 N   0  0  0  0  0  0  0  0  0  0  0  0
    6.6617   47.0610    3.9946 C   0  0  2  0  0  0  0  0  0  0  0  0
    7.4883   47.3176    2.7838 C   0  0  0  0  0  0  0  0  0  0  0  0
    7.4192   46.6262    1.7296 O   0  0  0  0  0  0  0  0  0  0  0  0
    5.2891   47.7420    3.8057 C   0  0  0  0  0  0  0  0  0  0  0  0
    5.7605   49.1982    3.7820 C   0  0  0  0  0  0  0  0  0  0  0  0
    6.9000   49.2017    4.7985 C   0  0  0  0  0  0  0  0  0  0  0  0
    8.4210   48.3937    2.7714 N   0  0  0  0  0  0  0  0  0  0  0  0
    9.5940   48.4946    1.9436 C   0  0  2  0  0  0  0  0  0  0  0  0
   10.7332   47.7242    2.5509 C   0  0  0  0  0  0  0  0  0  0  0  0
   11.2818   47.9996    3.6320 O   0  0  0  0  0  0  0  0  0  0  0  0
    9.9491   49.9199    1.6339 C   0  0  0  0  0  0  0  0  0  0  0  0
   10.9094   50.4594    2.6133 C   0  0  0  0  0  0  0  0  0  0  0  0
   11.3944   51.6105    2.5979 O   0  0  0  0  0  0  0  0  0  0  0  0
   11.3255   49.5888    3.6772 N   0  0  0  0  0  0  0  0  0  0  0  0
   11.2590   46.5788    1.8617 N   0  0  0  0  0  0  0  0  0  0  0  0
   12.3153   45.7386    2.2827 C   0  0  2  0  0  0  0  0  0  0  0  0
   13.4963   45.7963    1.3433 C   0  0  0  0  0  0  0  0  0  0  0  0
   14.5486   45.1460    1.6026 O   0  0  0  0  0  0  0  0  0  0  0  0
   11.9336   44.3630    2.6831 C   0  0  2  0  0  0  0  0  0  0  0  0
   11.2793   43.6901    1.6146 O   0  0  0  0  0  0  0  0  0  0  0  0
   10.9629   44.2806    3.8405 C   0  0  0  0  0  0  0  0  0  0  0  0
   13.4924   46.5695    0.1497 N   0  0  0  0  0  0  0  0  0  0  0  0
   14.5571   46.3448   -0.8032 C   0  0  2  0  0  0  0  0  0  0  0  0
   14.3520   47.4031   -1.8753 C   0  0  0  0  0  0  0  0  0  0  0  0
   13.2080   48.1599   -1.9662 O   0  0  0  0  0  0  0  0  0  0  0  0
   14.5795   45.0077   -1.4405 C   0  0  0  0  0  0  0  0  0  0  0  0
   14.7897   45.1654   -2.8052 O   0  0  0  0  0  0  0  0  0  0  0  0
   15.2684   47.6184   -2.7414 O   0  0  0  0  0  0  0  0  0  0  0  0
  2  1  1  6
  2  3  1  0
  2  5  1  0
  3  4  2  0
  3  7  1  0
  5  6  1  0
  7  8  1  0
  8  9  1  0
  8 11  1  1
  9 10  2  0
  9 15  1  0
 11 12  1  0
 12 13  1  1
 12 14  1  0
 15 16  1  0
 16 17  1  0
 16 19  1  1
 17 18  2  0
 17 23  1  0
 19 20  1  0
 20 21  1  0
 20 22  2  0
 23 24  1  0
 24 25  1  0
 24 27  1  1
 25 26  2  0
 25 29  1  0
 27 28  1  0
 29 30  1  0
 30 31  1  6
 30 33  1  0
 31 32  1  0
 32 35  1  0
 33 34  2  0
 33 39  1  0
 35 36  2  0
 35 37  1  6
 35 38  1  0
 39 40  1  0
 39 45  1  0
 40 41  1  6
 40 43  1  0
 41 42  2  0
 41 46  1  0
 43 44  1  0
 44 45  1  0
 46 47  1  0
 46 52  1  0
 47 48  1  6
 47 50  1  0
 48 49  2  0
 48 53  1  0
 50 51  1  0
 51 52  1  0
 53 54  1  0
 54 55  1  0
 54 57  1  1
 55 56  2  0
 55 61  1  0
 57 58  1  0
 58 59  2  0
 58 60  1  0
 62 61  1  6
 62 63  1  0
 62 65  1  0
 63 64  2  0
 63 68  1  0
 65 66  1  0
 65 67  1  1
 68 69  1  0
 69 70  1  0
 69 72  1  6
 70 71  1  0
 70 74  2  0
 72 73  1  0
M  CHG  1   1   1
M  END
$$$$
