
     RDKit          3D

 74 75  0  0  0  0  0  0  0  0999 V2000
   19.0201   45.3222   10.5411 N   0  0  0  0  0  4  0  0  0  0  0  0
   17.9392   46.1920   10.9799 C   0  0  2  0  0  0  0  0  0  0  0  0
   16.6588   45.6730   10.4192 C   0  0  0  0  0  0  0  0  0  0  0  0
   15.6115   46.0136   10.9733 O   0  0  0  0  0  0  0  0  0  0  0  0
   18.2453   47.5775   10.4110 C   0  0  0  0  0  0  0  0  0  0  0  0
   17.1764   48.4278   10.5862 O   0  0  0  0  0  0  0  0  0  0  0  0
   16.6765   44.8214    9.2896 N   0  0  0  0  0  0  0  0  0  0  0  0
   15.6177   44.0575    8.7511 C   0  0  2  0  0  0  0  0  0  0  0  0
   14.8369   43.3107    9.7452 C   0  0  0  0  0  0  0  0  0  0  0  0
   13.5673   43.4417    9.8486 O   0  0  0  0  0  0  0  0  0  0  0  0
   15.8954   43.2995    7.4690 C   0  0  0  0  0  0  0  0  0  0  0  0
   16.3855   44.1419    6.3443 C   0  0  1  0  0  0  0  0  0  0  0  0
   17.8167   44.5665    6.7053 C   0  0  0  0  0  0  0  0  0  0  0  0
   16.5265   43.2634    5.0749 C   0  0  0  0  0  0  0  0  0  0  0  0
   15.4229   42.4033   10.6475 N   0  0  0  0  0  0  0  0  0  0  0  0
   14.6639   41.6858   11.6481 C   0  0  2  0  0  0  0  0  0  0  0  0
   14.5633   42.5383   12.8346 C   0  0  0  0  0  0  0  0  0  0  0  0
   14.9624   43.7496   12.7537 O   0  0  0  0  0  0  0  0  0  0  0  0
   15.3941   40.4121   12.0507 C   0  0  0  0  0  0  0  0  0  0  0  0
   15.5952   39.5302   10.8817 C   0  0  0  0  0  0  0  0  0  0  0  0
   14.5448   39.0163   10.1657 O   0  0  0  0  0  0  0  0  0  0  0  0
   16.7712   39.2441   10.5360 O   0  0  0  0  0  0  0  0  0  0  0  0
   14.0515   42.0984   14.0640 N   0  0  0  0  0  0  0  0  0  0  0  0
   13.3515   43.0595   14.9516 C   0  0  2  0  0  0  0  0  0  0  0  0
   12.2125   43.6624   14.2342 C   0  0  0  0  0  0  0  0  0  0  0  0
   11.0661   43.5656   14.7529 O   0  0  0  0  0  0  0  0  0  0  0  0
   14.4198   44.0408   15.3540 C   0  0  0  0  0  0  0  0  0  0  0  0
   14.9557   43.8246   16.5914 O   0  0  0  0  0  0  0  0  0  0  0  0
   12.3501   44.3512   12.9990 N   0  0  0  0  0  0  0  0  0  0  0  0
   11.2242   44.8979   12.3297 C   0  0  1  0  0  0  0  0  0  0  0  0
   11.6532   46.0850   11.4274 C   0  0  0  0  0  0  0  0  0  0  0  0
   12.2976   47.0658   12.1288 O   0  0  0  0  0  0  0  0  0  0  0  0
   10.4076   43.9755   11.5310 C   0  0  0  0  0  0  0  0  0  0  0  0
   11.0575   43.3876   10.5898 O   0  0  0  0  0  0  0  0  0  0  0  0
   12.6799   48.3204   11.0284 P   0  0  1  0  0  5  0  0  0  0  0  0
   13.4977   47.7133    9.9168 O   0  0  0  0  0  0  0  0  0  0  0  0
   11.2035   48.9242   10.4110 O   0  0  0  0  0  0  0  0  0  0  0  0
   13.4618   49.5794   11.8070 O   0  0  0  0  0  0  0  0  0  0  0  0
    9.0681   43.6955   11.6999 N   0  0  0  0  0  0  0  0  0  0  0  0
    8.1442   42.7324   11.1723 C   0  0  2  0  0  0  0  0  0  0  0  0
    8.6368   41.5293   10.5822 C   0  0  0  0  0  0  0  0  0  0  0  0
    9.2641   40.5976   11.2111 O   0  0  0  0  0  0  0  0  0  0  0  0
    7.2540   43.6486   10.3748 C   0  0  0  0  0  0  0  0  0  0  0  0
    7.0056   44.7366   11.4337 C   0  0  0  0  0  0  0  0  0  0  0  0
    8.1441   44.5743   12.4683 C   0  0  0  0  0  0  0  0  0  0  0  0
    8.4332   41.2810    9.1718 N   0  0  0  0  0  0  0  0  0  0  0  0
    9.4067   40.8190    8.2235 C   0  0  2  0  0  0  0  0  0  0  0  0
    9.7099   41.8784    7.2231 C   0  0  0  0  0  0  0  0  0  0  0  0
   10.2405   41.6497    6.1004 O   0  0  0  0  0  0  0  0  0  0  0  0
    8.5789   39.7137    7.5332 C   0  0  0  0  0  0  0  0  0  0  0  0
    7.3217   40.5313    7.2261 C   0  0  0  0  0  0  0  0  0  0  0  0
    7.2052   41.4438    8.4449 C   0  0  0  0  0  0  0  0  0  0  0  0
    9.3992   43.2386    7.5077 N   0  0  0  0  0  0  0  0  0  0  0  0
    9.6835   44.3713    6.6664 C   0  0  2  0  0  0  0  0  0  0  0  0
   11.0073   44.9807    7.0357 C   0  0  0  0  0  0  0  0  0  0  0  0
   11.1793   45.8109    7.9449 O   0  0  0  0  0  0  0  0  0  0  0  0
    8.5610   45.3680    6.6582 C   0  0  0  0  0  0  0  0  0  0  0  0
    7.3244   44.7803    6.1127 C   0  0  0  0  0  0  0  0  0  0  0  0
    6.5417   44.0287    6.7319 O   0  0  0  0  0  0  0  0  0  0  0  0
    6.9883   45.0963    4.7525 N   0  0  0  0  0  0  0  0  0  0  0  0
   12.1865   44.6045    6.3068 N   0  0  0  0  0  0  0  0  0  0  0  0
   13.5095   45.0484    6.5341 C   0  0  2  0  0  0  0  0  0  0  0  0
   13.9770   46.0111    5.4684 C   0  0  0  0  0  0  0  0  0  0  0  0
   13.5409   45.9132    4.2863 O   0  0  0  0  0  0  0  0  0  0  0  0
   14.5005   43.9981    6.8704 C   0  0  2  0  0  0  0  0  0  0  0  0
   13.9638   42.7032    6.6303 O   0  0  0  0  0  0  0  0  0  0  0  0
   14.9359   43.9708    8.3189 C   0  0  0  0  0  0  0  0  0  0  0  0
   14.9134   47.0496    5.7277 N   0  0  0  0  0  0  0  0  0  0  0  0
   14.9454   48.1721    4.8161 C   0  0  2  0  0  0  0  0  0  0  0  0
   15.4208   49.3457    5.6576 C   0  0  0  0  0  0  0  0  0  0  0  0
   15.1743   49.4437    7.0065 O   0  0  0  0  0  0  0  0  0  0  0  0
   13.6539   48.5232    4.1810 C   0  0  0  0  0  0  0  0  0  0  0  0
   13.8999   48.9967    2.8978 O   0  0  0  0  0  0  0  0  0  0  0  0
   16.0809   50.2953    5.1112 O   0  0  0  0  0  0  0  0  0  0  0  0
  2  1  1  6
  2  3  1  0
  2  5  1  0
  3  4  2  0
  3  7  1  0
  5  6  1  0
  7  8  1  0
  8  9  1  0
  8 11  1  6
  9 10  2  0
  9 15  1  0
 11 12  1  0
 12 13  1  1
 12 14  1  0
 15 16  1  0
 16 17  1  0
 16 19  1  1
 17 18  2  0
 17 23  1  0
 19 20  1  0
 20 21  1  0
 20 22  2  0
 23 24  1  0
 24 25  1  0
 24 27  1  6
 25 26  2  0
 25 29  1  0
 27 28  1  0
 29 30  1  0
 30 31  1  6
 30 33  1  0
 31 32  1  0
 32 35  1  0
 33 34  2  0
 33 39  1  0
 35 36  2  0
 35 37  1  6
 35 38  1  0
 39 40  1  0
 39 45  1  0
 40 41  1  6
 40 43  1  0
 41 42  2  0
 41 46  1  0
 43 44  1  0
 44 45  1  0
 46 47  1  0
 46 52  1  0
 47 48  1  6
 47 50  1  0
 48 49  2  0
 48 53  1  0
 50 51  1  0
 51 52  1  0
 53 54  1  0
 54 55  1  0
 54 57  1  1
 55 56  2  0
 55 61  1  0
 57 58  1  0
 58 59  2  0
 58 60  1  0
 62 61  1  6
 62 63  1  0
 62 65  1  0
 63 64  2  0
 63 68  1  0
 65 66  1  0
 65 67  1  1
 68 69  1  0
 69 70  1  0
 69 72  1  1
 70 71  1  0
 70 74  2  0
 72 73  1  0
M  CHG  1   1   1
M  END
$$$$
