
     RDKit          3D

 74 75  0  0  0  0  0  0  0  0999 V2000
    7.8741   48.2196   -4.5323 N   0  0  0  0  0  4  0  0  0  0  0  0
    8.2620   47.6156   -3.2666 C   0  0  2  0  0  0  0  0  0  0  0  0
    7.7343   48.4623   -2.1584 C   0  0  0  0  0  0  0  0  0  0  0  0
    6.6511   49.0244   -2.3335 O   0  0  0  0  0  0  0  0  0  0  0  0
    9.7906   47.6061   -3.2461 C   0  0  0  0  0  0  0  0  0  0  0  0
   10.2630   46.9219   -2.1483 O   0  0  0  0  0  0  0  0  0  0  0  0
    8.4731   48.5967   -0.9595 N   0  0  0  0  0  0  0  0  0  0  0  0
    8.0433   49.1165    0.2813 C   0  0  2  0  0  0  0  0  0  0  0  0
    9.0755   49.1359    1.3253 C   0  0  0  0  0  0  0  0  0  0  0  0
    8.8719   49.6703    2.4710 O   0  0  0  0  0  0  0  0  0  0  0  0
    6.6672   48.7047    0.7633 C   0  0  0  0  0  0  0  0  0  0  0  0
    6.2884   49.2486    2.0958 C   0  0  1  0  0  0  0  0  0  0  0  0
    5.7584   50.6699    1.8549 C   0  0  0  0  0  0  0  0  0  0  0  0
    5.0804   48.4486    2.6468 C   0  0  0  0  0  0  0  0  0  0  0  0
   10.3521   48.5718    1.1436 N   0  0  0  0  0  0  0  0  0  0  0  0
   11.3654   48.5662    2.1756 C   0  0  2  0  0  0  0  0  0  0  0  0
   10.9180   47.6676    3.2418 C   0  0  0  0  0  0  0  0  0  0  0  0
    9.7329   47.8040    3.7003 O   0  0  0  0  0  0  0  0  0  0  0  0
   11.5170   49.9582    2.7731 C   0  0  0  0  0  0  0  0  0  0  0  0
   12.6708   50.0109    3.6956 C   0  0  0  0  0  0  0  0  0  0  0  0
   13.0540   48.9304    4.4477 O   0  0  0  0  0  0  0  0  0  0  0  0
   13.3197   51.0853    3.7906 O   0  0  0  0  0  0  0  0  0  0  0  0
   11.7214   46.6593    3.7938 N   0  0  0  0  0  0  0  0  0  0  0  0
   11.0836   45.5071    4.4774 C   0  0  2  0  0  0  0  0  0  0  0  0
   12.1162   44.6799    5.1293 C   0  0  0  0  0  0  0  0  0  0  0  0
   11.7807   43.5417    5.5589 O   0  0  0  0  0  0  0  0  0  0  0  0
   10.3223   44.8020    3.3868 C   0  0  0  0  0  0  0  0  0  0  0  0
    9.7251   43.6354    3.7709 O   0  0  0  0  0  0  0  0  0  0  0  0
   13.4644   45.1011    5.2842 N   0  0  0  0  0  0  0  0  0  0  0  0
   14.1365   44.9810    6.5285 C   0  0  1  0  0  0  0  0  0  0  0  0
   14.0730   46.3195    7.3106 C   0  0  0  0  0  0  0  0  0  0  0  0
   13.0573   46.3404    8.2255 O   0  0  0  0  0  0  0  0  0  0  0  0
   13.7046   43.8979    7.4206 C   0  0  0  0  0  0  0  0  0  0  0  0
   12.4277   43.7632    7.4943 O   0  0  0  0  0  0  0  0  0  0  0  0
   12.8621   47.9607    8.7425 P   0  0  1  0  0  5  0  0  0  0  0  0
   13.2599   48.0228   10.1955 O   0  0  0  0  0  0  0  0  0  0  0  0
   13.9153   48.9262    7.8021 O   0  0  0  0  0  0  0  0  0  0  0  0
   11.2985   48.4912    8.4662 O   0  0  0  0  0  0  0  0  0  0  0  0
   14.5134   43.0499    8.1471 N   0  0  0  0  0  0  0  0  0  0  0  0
   14.3704   42.2608    9.3372 C   0  0  2  0  0  0  0  0  0  0  0  0
   13.0662   41.9153    9.8042 C   0  0  0  0  0  0  0  0  0  0  0  0
   12.0526   42.7084    9.8274 O   0  0  0  0  0  0  0  0  0  0  0  0
   15.3201   42.9985   10.2437 C   0  0  0  0  0  0  0  0  0  0  0  0
   16.5317   43.1028    9.3014 C   0  0  0  0  0  0  0  0  0  0  0  0
   15.9681   42.8840    7.8775 C   0  0  0  0  0  0  0  0  0  0  0  0
   12.8042   40.5785   10.2908 N   0  0  0  0  0  0  0  0  0  0  0  0
   11.6375   40.1247   10.9931 C   0  0  2  0  0  0  0  0  0  0  0  0
   11.9780   39.7554   12.3941 C   0  0  0  0  0  0  0  0  0  0  0  0
   11.5501   38.7149   12.9674 O   0  0  0  0  0  0  0  0  0  0  0  0
   11.3543   38.8314   10.1990 C   0  0  0  0  0  0  0  0  0  0  0  0
   12.7547   38.2163   10.2619 C   0  0  0  0  0  0  0  0  0  0  0  0
   13.6658   39.4372   10.1568 C   0  0  0  0  0  0  0  0  0  0  0  0
   12.8318   40.5940   13.1659 N   0  0  0  0  0  0  0  0  0  0  0  0
   13.2811   40.3455   14.5104 C   0  0  2  0  0  0  0  0  0  0  0  0
   12.8646   41.4683   15.4193 C   0  0  0  0  0  0  0  0  0  0  0  0
   13.0806   41.5103   16.6429 O   0  0  0  0  0  0  0  0  0  0  0  0
   14.7528   40.0561   14.5725 C   0  0  0  0  0  0  0  0  0  0  0  0
   15.1720   39.6932   15.9381 C   0  0  0  0  0  0  0  0  0  0  0  0
   16.3352   39.4018   16.2884 O   0  0  0  0  0  0  0  0  0  0  0  0
   14.1580   39.6708   16.9551 N   0  0  0  0  0  0  0  0  0  0  0  0
   12.1599   42.5949   14.8739 N   0  0  0  0  0  0  0  0  0  0  0  0
   11.6498   43.7078   15.5811 C   0  0  2  0  0  0  0  0  0  0  0  0
   12.7091   44.3821   16.4202 C   0  0  0  0  0  0  0  0  0  0  0  0
   12.7092   45.6386   16.5564 O   0  0  0  0  0  0  0  0  0  0  0  0
   10.3663   43.4954   16.2921 C   0  0  2  0  0  0  0  0  0  0  0  0
   10.5939   43.0128   17.6104 O   0  0  0  0  0  0  0  0  0  0  0  0
    9.4484   42.4714   15.6615 C   0  0  0  0  0  0  0  0  0  0  0  0
   13.7412   43.6606   17.0811 N   0  0  0  0  0  0  0  0  0  0  0  0
   14.5666   44.3784   18.0275 C   0  0  2  0  0  0  0  0  0  0  0  0
   15.3819   43.3038   18.7289 C   0  0  0  0  0  0  0  0  0  0  0  0
   16.7236   43.1157   18.4962 O   0  0  0  0  0  0  0  0  0  0  0  0
   13.8388   45.1744   19.0430 C   0  0  0  0  0  0  0  0  0  0  0  0
   14.7642   45.7866   19.8798 O   0  0  0  0  0  0  0  0  0  0  0  0
   14.8191   42.5291   19.5768 O   0  0  0  0  0  0  0  0  0  0  0  0
  2  1  1  6
  2  3  1  0
  2  5  1  0
  3  4  2  0
  3  7  1  0
  5  6  1  0
  7  8  1  0
  8  9  1  0
  8 11  1  1
  9 10  2  0
  9 15  1  0
 11 12  1  0
 12 13  1  6
 12 14  1  0
 15 16  1  0
 16 17  1  0
 16 19  1  1
 17 18  2  0
 17 23  1  0
 19 20  1  0
 20 21  1  0
 20 22  2  0
 23 24  1  0
 24 25  1  0
 24 27  1  6
 25 26  2  0
 25 29  1  0
 27 28  1  0
 29 30  1  0
 30 31  1  1
 30 33  1  0
 31 32  1  0
 32 35  1  0
 33 34  2  0
 33 39  1  0
 35 36  2  0
 35 37  1  6
 35 38  1  0
 39 40  1  0
 39 45  1  0
 40 41  1  1
 40 43  1  0
 41 42  2  0
 41 46  1  0
 43 44  1  0
 44 45  1  0
 46 47  1  0
 46 52  1  0
 47 48  1  1
 47 50  1  0
 48 49  2  0
 48 53  1  0
 50 51  1  0
 51 52  1  0
 53 54  1  0
 54 55  1  0
 54 57  1  6
 55 56  2  0
 55 61  1  0
 57 58  1  0
 58 59  2  0
 58 60  1  0
 62 61  1  1
 62 63  1  0
 62 65  1  0
 63 64  2  0
 63 68  1  0
 65 66  1  0
 65 67  1  6
 68 69  1  0
 69 70  1  0
 69 72  1  1
 70 71  1  0
 70 74  2  0
 72 73  1  0
M  CHG  1   1   1
M  END
$$$$
