
     RDKit          3D

 74 75  0  0  0  0  0  0  0  0999 V2000
   17.3973   41.2107    7.1436 N   0  0  0  0  0  4  0  0  0  0  0  0
   17.4657   41.7426    8.4963 C   0  0  2  0  0  0  0  0  0  0  0  0
   17.0134   40.6833    9.4432 C   0  0  0  0  0  0  0  0  0  0  0  0
   16.3004   39.7824    8.9962 O   0  0  0  0  0  0  0  0  0  0  0  0
   16.5101   42.9352    8.5375 C   0  0  0  0  0  0  0  0  0  0  0  0
   17.1126   44.0653    8.0312 O   0  0  0  0  0  0  0  0  0  0  0  0
   17.4052   40.7366   10.8015 N   0  0  0  0  0  0  0  0  0  0  0  0
   17.0938   39.8312   11.8398 C   0  0  2  0  0  0  0  0  0  0  0  0
   15.8130   40.0884   12.5100 C   0  0  0  0  0  0  0  0  0  0  0  0
   15.0840   39.1402   12.9672 O   0  0  0  0  0  0  0  0  0  0  0  0
   18.2220   39.4310   12.7686 C   0  0  0  0  0  0  0  0  0  0  0  0
   17.9515   39.6716   14.2122 C   0  0  1  0  0  0  0  0  0  0  0  0
   19.1505   39.1011   14.9842 C   0  0  0  0  0  0  0  0  0  0  0  0
   17.9756   41.1970   14.4866 C   0  0  0  0  0  0  0  0  0  0  0  0
   15.2995   41.3853   12.6978 N   0  0  0  0  0  0  0  0  0  0  0  0
   14.0175   41.6434   13.3157 C   0  0  2  0  0  0  0  0  0  0  0  0
   12.9731   41.2156   12.3827 C   0  0  0  0  0  0  0  0  0  0  0  0
   12.5381   42.0558   11.5235 O   0  0  0  0  0  0  0  0  0  0  0  0
   13.8408   43.1356   13.5598 C   0  0  0  0  0  0  0  0  0  0  0  0
   14.9119   43.6548   14.4363 C   0  0  0  0  0  0  0  0  0  0  0  0
   15.7639   42.8245   15.1180 O   0  0  0  0  0  0  0  0  0  0  0  0
   15.0420   44.9008   14.5580 O   0  0  0  0  0  0  0  0  0  0  0  0
   12.4175   39.9279   12.3783 N   0  0  0  0  0  0  0  0  0  0  0  0
   10.9862   39.7493   12.0304 C   0  0  2  0  0  0  0  0  0  0  0  0
   10.5579   40.8229   11.1142 C   0  0  0  0  0  0  0  0  0  0  0  0
   10.5547   40.5799    9.8758 O   0  0  0  0  0  0  0  0  0  0  0  0
   10.2774   39.7488   13.3586 C   0  0  0  0  0  0  0  0  0  0  0  0
    9.8826   38.5160   13.7936 O   0  0  0  0  0  0  0  0  0  0  0  0
   10.1422   42.1057   11.5622 N   0  0  0  0  0  0  0  0  0  0  0  0
    9.6068   43.0637   10.6622 C   0  0  1  0  0  0  0  0  0  0  0  0
    9.4431   44.4367   11.3659 C   0  0  0  0  0  0  0  0  0  0  0  0
    8.8219   45.3589   10.5702 O   0  0  0  0  0  0  0  0  0  0  0  0
   10.3250   43.2692    9.3983 C   0  0  0  0  0  0  0  0  0  0  0  0
   11.5318   43.6877    9.5484 O   0  0  0  0  0  0  0  0  0  0  0  0
    8.6758   46.8053   11.4744 P   0  0  1  0  0  5  0  0  0  0  0  0
    7.8639   46.4894   12.7048 O   0  0  0  0  0  0  0  0  0  0  0  0
   10.2547   47.2899   11.9192 O   0  0  0  0  0  0  0  0  0  0  0  0
    8.0093   48.0265   10.5432 O   0  0  0  0  0  0  0  0  0  0  0  0
    9.8404   43.0565    8.1251 N   0  0  0  0  0  0  0  0  0  0  0  0
   10.3112   43.2994    6.7915 C   0  0  2  0  0  0  0  0  0  0  0  0
   11.7057   43.4989    6.5592 C   0  0  0  0  0  0  0  0  0  0  0  0
   12.5954   43.6553    7.4763 O   0  0  0  0  0  0  0  0  0  0  0  0
    9.3220   44.3509    6.3631 C   0  0  0  0  0  0  0  0  0  0  0  0
    8.0203   43.6640    6.8109 C   0  0  0  0  0  0  0  0  0  0  0  0
    8.4498   42.6014    7.8498 C   0  0  0  0  0  0  0  0  0  0  0  0
   12.2157   43.5253    5.2059 N   0  0  0  0  0  0  0  0  0  0  0  0
   13.3008   44.3194    4.7036 C   0  0  2  0  0  0  0  0  0  0  0  0
   12.8049   45.3337    3.7339 C   0  0  0  0  0  0  0  0  0  0  0  0
   13.4172   45.6482    2.6754 O   0  0  0  0  0  0  0  0  0  0  0  0
   14.0692   43.2298    3.9252 C   0  0  0  0  0  0  0  0  0  0  0  0
   12.9002   42.6643    3.1146 C   0  0  0  0  0  0  0  0  0  0  0  0
   11.7343   42.7496    4.0970 C   0  0  0  0  0  0  0  0  0  0  0  0
   11.5750   46.0098    3.9748 N   0  0  0  0  0  0  0  0  0  0  0  0
   10.8898   46.8835    3.0591 C   0  0  2  0  0  0  0  0  0  0  0  0
   10.7231   48.2503    3.6625 C   0  0  0  0  0  0  0  0  0  0  0  0
   10.3472   49.2605    3.0429 O   0  0  0  0  0  0  0  0  0  0  0  0
    9.5969   46.2954    2.5734 C   0  0  0  0  0  0  0  0  0  0  0  0
    8.4949   46.5705    3.5128 C   0  0  0  0  0  0  0  0  0  0  0  0
    8.5064   46.3281    4.7382 O   0  0  0  0  0  0  0  0  0  0  0  0
    7.3041   47.1676    2.9755 N   0  0  0  0  0  0  0  0  0  0  0  0
   11.0115   48.4479    5.0557 N   0  0  0  0  0  0  0  0  0  0  0  0
   11.8916   49.4000    5.6196 C   0  0  2  0  0  0  0  0  0  0  0  0
   11.5879   50.8029    5.1501 C   0  0  0  0  0  0  0  0  0  0  0  0
   12.0726   51.7976    5.7607 O   0  0  0  0  0  0  0  0  0  0  0  0
   13.3332   49.0549    5.5860 C   0  0  2  0  0  0  0  0  0  0  0  0
   13.6006   47.9259    6.4083 O   0  0  0  0  0  0  0  0  0  0  0  0
   14.2605   50.1334    6.1012 C   0  0  0  0  0  0  0  0  0  0  0  0
   10.7570   51.0754    4.0285 N   0  0  0  0  0  0  0  0  0  0  0  0
   10.9580   52.3246    3.3277 C   0  0  2  0  0  0  0  0  0  0  0  0
    9.6037   52.6548    2.7209 C   0  0  0  0  0  0  0  0  0  0  0  0
    8.6078   53.2911    3.4231 O   0  0  0  0  0  0  0  0  0  0  0  0
   11.9779   52.3035    2.2534 C   0  0  0  0  0  0  0  0  0  0  0  0
   11.3368   52.4090    1.0249 O   0  0  0  0  0  0  0  0  0  0  0  0
    9.3554   52.3383    1.5068 O   0  0  0  0  0  0  0  0  0  0  0  0
  2  1  1  6
  2  3  1  0
  2  5  1  0
  3  4  2  0
  3  7  1  0
  5  6  1  0
  7  8  1  0
  8  9  1  0
  8 11  1  1
  9 10  2  0
  9 15  1  0
 11 12  1  0
 12 13  1  1
 12 14  1  0
 15 16  1  0
 16 17  1  0
 16 19  1  6
 17 18  2  0
 17 23  1  0
 19 20  1  0
 20 21  1  0
 20 22  2  0
 23 24  1  0
 24 25  1  0
 24 27  1  1
 25 26  2  0
 25 29  1  0
 27 28  1  0
 29 30  1  0
 30 31  1  1
 30 33  1  0
 31 32  1  0
 32 35  1  0
 33 34  2  0
 33 39  1  0
 35 36  2  0
 35 37  1  1
 35 38  1  0
 39 40  1  0
 39 45  1  0
 40 41  1  1
 40 43  1  0
 41 42  2  0
 41 46  1  0
 43 44  1  0
 44 45  1  0
 46 47  1  0
 46 52  1  0
 47 48  1  6
 47 50  1  0
 48 49  2  0
 48 53  1  0
 50 51  1  0
 51 52  1  0
 53 54  1  0
 54 55  1  0
 54 57  1  1
 55 56  2  0
 55 61  1  0
 57 58  1  0
 58 59  2  0
 58 60  1  0
 62 61  1  6
 62 63  1  0
 62 65  1  0
 63 64  2  0
 63 68  1  0
 65 66  1  0
 65 67  1  1
 68 69  1  0
 69 70  1  0
 69 72  1  6
 70 71  1  0
 70 74  2  0
 72 73  1  0
M  CHG  1   1   1
M  END
$$$$
