
     RDKit          3D

 74 75  0  0  0  0  0  0  0  0999 V2000
   17.2890   46.0289    0.4556 N   0  0  0  0  0  4  0  0  0  0  0  0
   16.8168   46.0189    1.8319 C   0  0  2  0  0  0  0  0  0  0  0  0
   17.5254   44.9314    2.5659 C   0  0  0  0  0  0  0  0  0  0  0  0
   18.2963   44.2153    1.9234 O   0  0  0  0  0  0  0  0  0  0  0  0
   15.3173   45.7279    1.7693 C   0  0  0  0  0  0  0  0  0  0  0  0
   15.0140   44.5648    2.4413 O   0  0  0  0  0  0  0  0  0  0  0  0
   17.3010   44.7521    3.9511 N   0  0  0  0  0  0  0  0  0  0  0  0
   17.9655   43.8798    4.8411 C   0  0  2  0  0  0  0  0  0  0  0  0
   17.4982   43.9540    6.2310 C   0  0  0  0  0  0  0  0  0  0  0  0
   18.1752   44.5438    7.1439 O   0  0  0  0  0  0  0  0  0  0  0  0
   19.4670   43.7482    4.6871 C   0  0  0  0  0  0  0  0  0  0  0  0
   20.2452   44.0472    5.9199 C   0  0  1  0  0  0  0  0  0  0  0  0
   21.7196   43.7784    5.5839 C   0  0  0  0  0  0  0  0  0  0  0  0
   20.1630   45.5663    6.2171 C   0  0  0  0  0  0  0  0  0  0  0  0
   16.2816   43.3880    6.6559 N   0  0  0  0  0  0  0  0  0  0  0  0
   15.8578   43.3775    8.0388 C   0  0  2  0  0  0  0  0  0  0  0  0
   15.8406   41.9859    8.4944 C   0  0  0  0  0  0  0  0  0  0  0  0
   14.7647   41.3100    8.3570 O   0  0  0  0  0  0  0  0  0  0  0  0
   14.4425   43.9247    8.1606 C   0  0  0  0  0  0  0  0  0  0  0  0
   14.1304   44.2660    9.5645 C   0  0  0  0  0  0  0  0  0  0  0  0
   14.9019   45.1340   10.2935 O   0  0  0  0  0  0  0  0  0  0  0  0
   13.1225   43.7399   10.1045 O   0  0  0  0  0  0  0  0  0  0  0  0
   16.9445   41.3477    9.0783 N   0  0  0  0  0  0  0  0  0  0  0  0
   16.8324   39.9288    9.4975 C   0  0  2  0  0  0  0  0  0  0  0  0
   15.9283   39.8215   10.6579 C   0  0  0  0  0  0  0  0  0  0  0  0
   14.9724   39.0002   10.5913 O   0  0  0  0  0  0  0  0  0  0  0  0
   18.2512   39.5098    9.7767 C   0  0  0  0  0  0  0  0  0  0  0  0
   18.3873   38.2342   10.2450 O   0  0  0  0  0  0  0  0  0  0  0  0
   16.0914   40.5891   11.8425 N   0  0  0  0  0  0  0  0  0  0  0  0
   15.1917   40.4631   12.9329 C   0  0  1  0  0  0  0  0  0  0  0  0
   15.5589   41.4667   14.0578 C   0  0  0  0  0  0  0  0  0  0  0  0
   16.8858   41.7962   14.0489 O   0  0  0  0  0  0  0  0  0  0  0  0
   13.7596   40.5959   12.6378 C   0  0  0  0  0  0  0  0  0  0  0  0
   13.5096   41.2516   11.5602 O   0  0  0  0  0  0  0  0  0  0  0  0
   17.2561   42.4857   15.5715 P   0  0  1  0  0  5  0  0  0  0  0  0
   16.6277   43.8555   15.6126 O   0  0  0  0  0  0  0  0  0  0  0  0
   16.5592   41.4822   16.7685 O   0  0  0  0  0  0  0  0  0  0  0  0
   18.9103   42.5139   15.8275 O   0  0  0  0  0  0  0  0  0  0  0  0
   12.7103   40.0962   13.3798 N   0  0  0  0  0  0  0  0  0  0  0  0
   11.2790   40.1831   13.3255 C   0  0  2  0  0  0  0  0  0  0  0  0
   10.6393   40.5625   12.1068 C   0  0  0  0  0  0  0  0  0  0  0  0
   11.2366   40.7450   10.9813 O   0  0  0  0  0  0  0  0  0  0  0  0
   11.0273   40.9741   14.5820 C   0  0  0  0  0  0  0  0  0  0  0  0
   11.9035   40.1721   15.5597 C   0  0  0  0  0  0  0  0  0  0  0  0
   12.8961   39.3832   14.6735 C   0  0  0  0  0  0  0  0  0  0  0  0
    9.2067   40.7604   12.0746 N   0  0  0  0  0  0  0  0  0  0  0  0
    8.4319   41.3137   11.0005 C   0  0  2  0  0  0  0  0  0  0  0  0
    7.8456   42.6234   11.3958 C   0  0  0  0  0  0  0  0  0  0  0  0
    6.6059   42.8245   11.5263 O   0  0  0  0  0  0  0  0  0  0  0  0
    7.2996   40.2658   10.9428 C   0  0  0  0  0  0  0  0  0  0  0  0
    6.9255   40.2552   12.4271 C   0  0  0  0  0  0  0  0  0  0  0  0
    8.2759   40.4315   13.1178 C   0  0  0  0  0  0  0  0  0  0  0  0
    8.6949   43.7375   11.6512 N   0  0  0  0  0  0  0  0  0  0  0  0
    8.3127   44.9723   12.2841 C   0  0  2  0  0  0  0  0  0  0  0  0
    9.4904   45.9023   12.3750 C   0  0  0  0  0  0  0  0  0  0  0  0
    9.4143   47.1337   12.5284 O   0  0  0  0  0  0  0  0  0  0  0  0
    7.6397   44.7475   13.6069 C   0  0  0  0  0  0  0  0  0  0  0  0
    6.1915   44.5277   13.4426 C   0  0  0  0  0  0  0  0  0  0  0  0
    5.3522   45.4040   13.1455 O   0  0  0  0  0  0  0  0  0  0  0  0
    5.7005   43.1927   13.6415 N   0  0  0  0  0  0  0  0  0  0  0  0
   10.8209   45.3694   12.2797 N   0  0  0  0  0  0  0  0  0  0  0  0
   12.0118   46.0857   12.0190 C   0  0  2  0  0  0  0  0  0  0  0  0
   11.9859   46.7585   10.6672 C   0  0  0  0  0  0  0  0  0  0  0  0
   13.0522   47.2081   10.1592 O   0  0  0  0  0  0  0  0  0  0  0  0
   13.2783   45.3720   12.3100 C   0  0  2  0  0  0  0  0  0  0  0  0
   13.3798   44.1868   11.5306 O   0  0  0  0  0  0  0  0  0  0  0  0
   13.4346   44.9054   13.7406 C   0  0  0  0  0  0  0  0  0  0  0  0
   10.7913   46.9244    9.9136 N   0  0  0  0  0  0  0  0  0  0  0  0
   10.9172   47.3184    8.5276 C   0  0  2  0  0  0  0  0  0  0  0  0
    9.6525   48.1076    8.2290 C   0  0  0  0  0  0  0  0  0  0  0  0
    8.5516   48.0904    9.0522 O   0  0  0  0  0  0  0  0  0  0  0  0
   11.0386   46.2106    7.5515 C   0  0  0  0  0  0  0  0  0  0  0  0
   11.0351   46.7424    6.2676 O   0  0  0  0  0  0  0  0  0  0  0  0
    9.5847   48.8267    7.1734 O   0  0  0  0  0  0  0  0  0  0  0  0
  2  1  1  6
  2  3  1  0
  2  5  1  0
  3  4  2  0
  3  7  1  0
  5  6  1  0
  7  8  1  0
  8  9  1  0
  8 11  1  1
  9 10  2  0
  9 15  1  0
 11 12  1  0
 12 13  1  6
 12 14  1  0
 15 16  1  0
 16 17  1  0
 16 19  1  6
 17 18  2  0
 17 23  1  0
 19 20  1  0
 20 21  1  0
 20 22  2  0
 23 24  1  0
 24 25  1  0
 24 27  1  1
 25 26  2  0
 25 29  1  0
 27 28  1  0
 29 30  1  0
 30 31  1  1
 30 33  1  0
 31 32  1  0
 32 35  1  0
 33 34  2  0
 33 39  1  0
 35 36  2  0
 35 37  1  1
 35 38  1  0
 39 40  1  0
 39 45  1  0
 40 41  1  6
 40 43  1  0
 41 42  2  0
 41 46  1  0
 43 44  1  0
 44 45  1  0
 46 47  1  0
 46 52  1  0
 47 48  1  1
 47 50  1  0
 48 49  2  0
 48 53  1  0
 50 51  1  0
 51 52  1  0
 53 54  1  0
 54 55  1  0
 54 57  1  1
 55 56  2  0
 55 61  1  0
 57 58  1  0
 58 59  2  0
 58 60  1  0
 62 61  1  6
 62 63  1  0
 62 65  1  0
 63 64  2  0
 63 68  1  0
 65 66  1  0
 65 67  1  1
 68 69  1  0
 69 70  1  0
 69 72  1  6
 70 71  1  0
 70 74  2  0
 72 73  1  0
M  CHG  1   1   1
M  END
$$$$
