
     RDKit          3D

 74 75  0  0  0  0  0  0  0  0999 V2000
   15.6021   50.4202   -1.6938 N   0  0  0  0  0  4  0  0  0  0  0  0
   15.3014   48.9967   -1.6755 C   0  0  2  0  0  0  0  0  0  0  0  0
   14.2804   48.7436   -0.6187 C   0  0  0  0  0  0  0  0  0  0  0  0
   13.2255   49.3787   -0.6782 O   0  0  0  0  0  0  0  0  0  0  0  0
   16.6102   48.2859   -1.3308 C   0  0  0  0  0  0  0  0  0  0  0  0
   17.5977   48.6091   -2.2346 O   0  0  0  0  0  0  0  0  0  0  0  0
   14.5414   47.8013    0.4038 N   0  0  0  0  0  0  0  0  0  0  0  0
   13.6160   47.1192    1.2241 C   0  0  2  0  0  0  0  0  0  0  0  0
   14.2207   46.1725    2.1695 C   0  0  0  0  0  0  0  0  0  0  0  0
   13.5808   45.7249    3.1843 O   0  0  0  0  0  0  0  0  0  0  0  0
   12.3424   46.6271    0.5673 C   0  0  0  0  0  0  0  0  0  0  0  0
   11.2796   46.2004    1.5176 C   0  0  1  0  0  0  0  0  0  0  0  0
   10.7597   47.4763    2.1964 C   0  0  0  0  0  0  0  0  0  0  0  0
   10.0754   45.6425    0.7166 C   0  0  0  0  0  0  0  0  0  0  0  0
   15.5360   45.6918    2.0285 N   0  0  0  0  0  0  0  0  0  0  0  0
   16.3016   45.1555    3.1322 C   0  0  2  0  0  0  0  0  0  0  0  0
   15.3652   44.5318    4.0695 C   0  0  0  0  0  0  0  0  0  0  0  0
   14.1889   45.0200    4.1757 O   0  0  0  0  0  0  0  0  0  0  0  0
   17.0203   46.2769    3.8694 C   0  0  0  0  0  0  0  0  0  0  0  0
   17.7935   47.1135    2.9275 C   0  0  0  0  0  0  0  0  0  0  0  0
   17.3469   48.3386    2.5035 O   0  0  0  0  0  0  0  0  0  0  0  0
   18.8974   46.6828    2.5031 O   0  0  0  0  0  0  0  0  0  0  0  0
   15.6875   43.4220    4.8642 N   0  0  0  0  0  0  0  0  0  0  0  0
   14.6125   42.7115    5.5999 C   0  0  2  0  0  0  0  0  0  0  0  0
   14.3021   43.4326    6.8486 C   0  0  0  0  0  0  0  0  0  0  0  0
   15.2565   43.9673    7.4778 O   0  0  0  0  0  0  0  0  0  0  0  0
   15.1568   41.3230    5.8052 C   0  0  0  0  0  0  0  0  0  0  0  0
   14.8296   40.4316    4.8237 O   0  0  0  0  0  0  0  0  0  0  0  0
   12.9843   43.5593    7.3646 N   0  0  0  0  0  0  0  0  0  0  0  0
   12.7514   44.0049    8.6919 C   0  0  1  0  0  0  0  0  0  0  0  0
   11.6904   45.1369    8.7056 C   0  0  0  0  0  0  0  0  0  0  0  0
   12.2566   46.3814    8.7054 O   0  0  0  0  0  0  0  0  0  0  0  0
   12.3648   42.9904    9.6803 C   0  0  0  0  0  0  0  0  0  0  0  0
   11.6055   42.0666    9.2072 O   0  0  0  0  0  0  0  0  0  0  0  0
   10.9911   47.5238    8.5499 P   0  0  1  0  0  5  0  0  0  0  0  0
   11.6038   48.8963    8.6676 O   0  0  0  0  0  0  0  0  0  0  0  0
   10.3053   47.3165    6.9968 O   0  0  0  0  0  0  0  0  0  0  0  0
    9.7898   47.2414    9.6812 O   0  0  0  0  0  0  0  0  0  0  0  0
   12.7338   42.9435   11.0080 N   0  0  0  0  0  0  0  0  0  0  0  0
   12.0816   42.6256   12.2461 C   0  0  2  0  0  0  0  0  0  0  0  0
   10.8792   41.8558   12.2347 C   0  0  0  0  0  0  0  0  0  0  0  0
    9.8748   42.0607   11.4562 O   0  0  0  0  0  0  0  0  0  0  0  0
   12.0952   43.9850   12.8938 C   0  0  0  0  0  0  0  0  0  0  0  0
   13.5679   44.3595   12.6536 C   0  0  0  0  0  0  0  0  0  0  0  0
   14.0463   43.4399   11.5054 C   0  0  0  0  0  0  0  0  0  0  0  0
   10.7285   40.7389   13.1415 N   0  0  0  0  0  0  0  0  0  0  0  0
    9.5485   39.9507   13.3575 C   0  0  2  0  0  0  0  0  0  0  0  0
    9.0174   40.1651   14.7312 C   0  0  0  0  0  0  0  0  0  0  0  0
    8.6392   39.2290   15.4895 O   0  0  0  0  0  0  0  0  0  0  0  0
   10.1727   38.5405   13.2865 C   0  0  0  0  0  0  0  0  0  0  0  0
   11.3226   38.7523   14.2745 C   0  0  0  0  0  0  0  0  0  0  0  0
   11.7418   40.1951   14.0019 C   0  0  0  0  0  0  0  0  0  0  0  0
    8.9145   41.4838   15.2588 N   0  0  0  0  0  0  0  0  0  0  0  0
    8.0821   41.8992   16.3570 C   0  0  2  0  0  0  0  0  0  0  0  0
    7.2701   43.1049   15.9738 C   0  0  0  0  0  0  0  0  0  0  0  0
    6.0554   43.0898   15.7094 O   0  0  0  0  0  0  0  0  0  0  0  0
    8.8676   42.0987   17.6205 C   0  0  0  0  0  0  0  0  0  0  0  0
    9.7648   40.9588   17.8813 C   0  0  0  0  0  0  0  0  0  0  0  0
   10.5461   40.8552   18.8506 O   0  0  0  0  0  0  0  0  0  0  0  0
    9.7416   39.8730   16.9413 N   0  0  0  0  0  0  0  0  0  0  0  0
    7.9074   44.3897   15.8928 N   0  0  0  0  0  0  0  0  0  0  0  0
    7.3186   45.6122   15.4955 C   0  0  2  0  0  0  0  0  0  0  0  0
    6.5493   45.4789   14.2027 C   0  0  0  0  0  0  0  0  0  0  0  0
    7.1640   45.3351   13.1079 O   0  0  0  0  0  0  0  0  0  0  0  0
    8.1956   46.8063   15.5515 C   0  0  2  0  0  0  0  0  0  0  0  0
    9.4817   46.5127   15.0203 O   0  0  0  0  0  0  0  0  0  0  0  0
    8.4663   47.3355   16.9426 C   0  0  0  0  0  0  0  0  0  0  0  0
    5.1286   45.5128   14.1464 N   0  0  0  0  0  0  0  0  0  0  0  0
    4.5096   45.7302   12.8574 C   0  0  2  0  0  0  0  0  0  0  0  0
    4.9904   47.1044   12.4195 C   0  0  0  0  0  0  0  0  0  0  0  0
    4.2927   48.2582   12.6870 O   0  0  0  0  0  0  0  0  0  0  0  0
    3.0284   45.7078   12.8422 C   0  0  0  0  0  0  0  0  0  0  0  0
    2.5894   45.9825   11.5525 O   0  0  0  0  0  0  0  0  0  0  0  0
    6.0885   47.2190   11.7736 O   0  0  0  0  0  0  0  0  0  0  0  0
  2  1  1  1
  2  3  1  0
  2  5  1  0
  3  4  2  0
  3  7  1  0
  5  6  1  0
  7  8  1  0
  8  9  1  0
  8 11  1  6
  9 10  2  0
  9 15  1  0
 11 12  1  0
 12 13  1  6
 12 14  1  0
 15 16  1  0
 16 17  1  0
 16 19  1  1
 17 18  2  0
 17 23  1  0
 19 20  1  0
 20 21  1  0
 20 22  2  0
 23 24  1  0
 24 25  1  0
 24 27  1  1
 25 26  2  0
 25 29  1  0
 27 28  1  0
 29 30  1  0
 30 31  1  6
 30 33  1  0
 31 32  1  0
 32 35  1  0
 33 34  2  0
 33 39  1  0
 35 36  2  0
 35 37  1  6
 35 38  1  0
 39 40  1  0
 39 45  1  0
 40 41  1  6
 40 43  1  0
 41 42  2  0
 41 46  1  0
 43 44  1  0
 44 45  1  0
 46 47  1  0
 46 52  1  0
 47 48  1  1
 47 50  1  0
 48 49  2  0
 48 53  1  0
 50 51  1  0
 51 52  1  0
 53 54  1  0
 54 55  1  0
 54 57  1  1
 55 56  2  0
 55 61  1  0
 57 58  1  0
 58 59  2  0
 58 60  1  0
 62 61  1  6
 62 63  1  0
 62 65  1  0
 63 64  2  0
 63 68  1  0
 65 66  1  0
 65 67  1  1
 68 69  1  0
 69 70  1  0
 69 72  1  1
 70 71  1  0
 70 74  2  0
 72 73  1  0
M  CHG  1   1   1
M  END
$$$$
