
     RDKit          3D

 74 75  0  0  0  0  0  0  0  0999 V2000
   21.4766   36.9802   15.6999 N   0  0  0  0  0  4  0  0  0  0  0  0
   20.6206   38.1090   16.0320 C   0  0  2  0  0  0  0  0  0  0  0  0
   19.7919   38.4403   14.8375 C   0  0  0  0  0  0  0  0  0  0  0  0
   20.3528   38.4616   13.7398 O   0  0  0  0  0  0  0  0  0  0  0  0
   21.5546   39.2713   16.3695 C   0  0  0  0  0  0  0  0  0  0  0  0
   20.9591   40.4794   16.0830 O   0  0  0  0  0  0  0  0  0  0  0  0
   18.4127   38.7159   14.9896 N   0  0  0  0  0  0  0  0  0  0  0  0
   17.4909   39.1437   14.0088 C   0  0  2  0  0  0  0  0  0  0  0  0
   18.0874   39.8947   12.8971 C   0  0  0  0  0  0  0  0  0  0  0  0
   19.0375   40.7340   13.0777 O   0  0  0  0  0  0  0  0  0  0  0  0
   16.1650   39.6894   14.4984 C   0  0  0  0  0  0  0  0  0  0  0  0
   15.0830   39.6987   13.4767 C   0  0  1  0  0  0  0  0  0  0  0  0
   14.7437   38.2297   13.1837 C   0  0  0  0  0  0  0  0  0  0  0  0
   13.7981   40.2992   14.1023 C   0  0  0  0  0  0  0  0  0  0  0  0
   17.6623   39.7459   11.5637 N   0  0  0  0  0  0  0  0  0  0  0  0
   18.1241   40.5975   10.4896 C   0  0  2  0  0  0  0  0  0  0  0  0
   17.2632   41.7815   10.4512 C   0  0  0  0  0  0  0  0  0  0  0  0
   16.6759   42.1465   11.5260 O   0  0  0  0  0  0  0  0  0  0  0  0
   17.9895   39.8806    9.1534 C   0  0  0  0  0  0  0  0  0  0  0  0
   18.7849   38.6347    9.1434 C   0  0  0  0  0  0  0  0  0  0  0  0
   18.8389   37.7944   10.2255 O   0  0  0  0  0  0  0  0  0  0  0  0
   19.4327   38.3399    8.1052 O   0  0  0  0  0  0  0  0  0  0  0  0
   17.0435   42.5429    9.2941 N   0  0  0  0  0  0  0  0  0  0  0  0
   16.2921   43.8188    9.3891 C   0  0  2  0  0  0  0  0  0  0  0  0
   14.8452   43.5414    9.4612 C   0  0  0  0  0  0  0  0  0  0  0  0
   14.3845   42.6054    8.7511 O   0  0  0  0  0  0  0  0  0  0  0  0
   16.7146   44.5916    8.1682 C   0  0  0  0  0  0  0  0  0  0  0  0
   16.6688   45.9492    8.3087 O   0  0  0  0  0  0  0  0  0  0  0  0
   13.9560   44.2696   10.2967 N   0  0  0  0  0  0  0  0  0  0  0  0
   12.6473   44.6077    9.8639 C   0  0  1  0  0  0  0  0  0  0  0  0
   12.2027   45.9583   10.4847 C   0  0  0  0  0  0  0  0  0  0  0  0
   11.9772   46.9178    9.5372 O   0  0  0  0  0  0  0  0  0  0  0  0
   12.4143   44.6603    8.4152 C   0  0  0  0  0  0  0  0  0  0  0  0
   13.1187   45.5481    7.8074 O   0  0  0  0  0  0  0  0  0  0  0  0
   11.5887   48.3701   10.3562 P   0  0  1  0  0  5  0  0  0  0  0  0
   10.8740   47.9940   11.6293 O   0  0  0  0  0  0  0  0  0  0  0  0
   13.0615   49.1602   10.7193 O   0  0  0  0  0  0  0  0  0  0  0  0
   10.6912   49.3870    9.3749 O   0  0  0  0  0  0  0  0  0  0  0  0
   11.5495   43.8725    7.6854 N   0  0  0  0  0  0  0  0  0  0  0  0
   10.9779   43.9185    6.3699 C   0  0  2  0  0  0  0  0  0  0  0  0
   11.5950   44.7149    5.3582 C   0  0  0  0  0  0  0  0  0  0  0  0
   12.5852   45.5156    5.5459 O   0  0  0  0  0  0  0  0  0  0  0  0
    9.5346   44.1516    6.7308 C   0  0  0  0  0  0  0  0  0  0  0  0
    9.3710   43.0682    7.8108 C   0  0  0  0  0  0  0  0  0  0  0  0
   10.8069   42.7223    8.2704 C   0  0  0  0  0  0  0  0  0  0  0  0
   11.1167   44.6476    3.9947 N   0  0  0  0  0  0  0  0  0  0  0  0
   11.4942   45.4966    2.9007 C   0  0  2  0  0  0  0  0  0  0  0  0
   10.3447   46.3360    2.4658 C   0  0  0  0  0  0  0  0  0  0  0  0
   10.2238   46.8083    1.3011 O   0  0  0  0  0  0  0  0  0  0  0  0
   11.7509   44.4195    1.8248 C   0  0  0  0  0  0  0  0  0  0  0  0
   10.4402   43.6416    1.9665 C   0  0  0  0  0  0  0  0  0  0  0  0
   10.1693   43.7053    3.4679 C   0  0  0  0  0  0  0  0  0  0  0  0
    9.3006   46.6465    3.3830 N   0  0  0  0  0  0  0  0  0  0  0  0
    8.1240   47.4263    3.1020 C   0  0  2  0  0  0  0  0  0  0  0  0
    7.9488   48.5039    4.1355 C   0  0  0  0  0  0  0  0  0  0  0  0
    6.8717   48.7957    4.6834 O   0  0  0  0  0  0  0  0  0  0  0  0
    6.9024   46.5701    2.9348 C   0  0  0  0  0  0  0  0  0  0  0  0
    6.6585   45.7425    4.1298 C   0  0  0  0  0  0  0  0  0  0  0  0
    5.7545   45.9293    4.9716 O   0  0  0  0  0  0  0  0  0  0  0  0
    7.5344   44.6253    4.3481 N   0  0  0  0  0  0  0  0  0  0  0  0
    9.0853   49.2797    4.5475 N   0  0  0  0  0  0  0  0  0  0  0  0
    9.4652   49.6031    5.8704 C   0  0  2  0  0  0  0  0  0  0  0  0
   10.6963   50.4769    5.9108 C   0  0  0  0  0  0  0  0  0  0  0  0
   11.8141   49.9873    6.2393 O   0  0  0  0  0  0  0  0  0  0  0  0
    9.4976   48.4759    6.8330 C   0  0  2  0  0  0  0  0  0  0  0  0
    9.0759   48.9019    8.1227 O   0  0  0  0  0  0  0  0  0  0  0  0
   10.8639   47.8665    7.0576 C   0  0  0  0  0  0  0  0  0  0  0  0
   10.6658   51.8634    5.5956 N   0  0  0  0  0  0  0  0  0  0  0  0
   11.1025   52.2652    4.2766 C   0  0  2  0  0  0  0  0  0  0  0  0
   10.4509   53.6190    4.0445 C   0  0  0  0  0  0  0  0  0  0  0  0
   11.0526   54.8051    4.3924 O   0  0  0  0  0  0  0  0  0  0  0  0
   10.7317   51.3531    3.1697 C   0  0  0  0  0  0  0  0  0  0  0  0
   11.7233   51.4025    2.1972 O   0  0  0  0  0  0  0  0  0  0  0  0
    9.2938   53.6847    3.5034 O   0  0  0  0  0  0  0  0  0  0  0  0
  2  1  1  6
  2  3  1  0
  2  5  1  0
  3  4  2  0
  3  7  1  0
  5  6  1  0
  7  8  1  0
  8  9  1  0
  8 11  1  1
  9 10  2  0
  9 15  1  0
 11 12  1  0
 12 13  1  1
 12 14  1  0
 15 16  1  0
 16 17  1  0
 16 19  1  6
 17 18  2  0
 17 23  1  0
 19 20  1  0
 20 21  1  0
 20 22  2  0
 23 24  1  0
 24 25  1  0
 24 27  1  6
 25 26  2  0
 25 29  1  0
 27 28  1  0
 29 30  1  0
 30 31  1  6
 30 33  1  0
 31 32  1  0
 32 35  1  0
 33 34  2  0
 33 39  1  0
 35 36  2  0
 35 37  1  1
 35 38  1  0
 39 40  1  0
 39 45  1  0
 40 41  1  6
 40 43  1  0
 41 42  2  0
 41 46  1  0
 43 44  1  0
 44 45  1  0
 46 47  1  0
 46 52  1  0
 47 48  1  6
 47 50  1  0
 48 49  2  0
 48 53  1  0
 50 51  1  0
 51 52  1  0
 53 54  1  0
 54 55  1  0
 54 57  1  1
 55 56  2  0
 55 61  1  0
 57 58  1  0
 58 59  2  0
 58 60  1  0
 62 61  1  6
 62 63  1  0
 62 65  1  0
 63 64  2  0
 63 68  1  0
 65 66  1  0
 65 67  1  1
 68 69  1  0
 69 70  1  0
 69 72  1  6
 70 71  1  0
 70 74  2  0
 72 73  1  0
M  CHG  1   1   1
M  END
$$$$
