
     RDKit          3D

 74 75  0  0  0  0  0  0  0  0999 V2000
   15.3661   43.9749    9.2601 N   0  0  0  0  0  4  0  0  0  0  0  0
   15.6686   42.8894   10.1807 C   0  0  2  0  0  0  0  0  0  0  0  0
   14.5318   41.9248   10.1626 C   0  0  0  0  0  0  0  0  0  0  0  0
   13.8545   41.8574    9.1347 O   0  0  0  0  0  0  0  0  0  0  0  0
   15.8039   43.5252   11.5644 C   0  0  0  0  0  0  0  0  0  0  0  0
   15.6517   44.8920   11.4942 O   0  0  0  0  0  0  0  0  0  0  0  0
   14.2641   41.1276   11.3003 N   0  0  0  0  0  0  0  0  0  0  0  0
   13.2390   40.1731   11.4804 C   0  0  2  0  0  0  0  0  0  0  0  0
   12.2800   40.5006   12.5429 C   0  0  0  0  0  0  0  0  0  0  0  0
   11.3021   39.7278   12.8361 O   0  0  0  0  0  0  0  0  0  0  0  0
   13.6366   38.7124   11.4186 C   0  0  0  0  0  0  0  0  0  0  0  0
   12.5099   37.7553   11.5890 C   0  0  1  0  0  0  0  0  0  0  0  0
   12.2412   37.6581   13.0981 C   0  0  0  0  0  0  0  0  0  0  0  0
   11.2233   38.3715   10.9825 C   0  0  0  0  0  0  0  0  0  0  0  0
   12.3671   41.6773   13.3102 N   0  0  0  0  0  0  0  0  0  0  0  0
   11.4036   42.0254   14.3312 C   0  0  2  0  0  0  0  0  0  0  0  0
   10.7657   43.2838   13.9387 C   0  0  0  0  0  0  0  0  0  0  0  0
   11.4155   44.0930   13.1929 O   0  0  0  0  0  0  0  0  0  0  0  0
   12.1057   42.2548   15.6623 C   0  0  0  0  0  0  0  0  0  0  0  0
   12.1035   41.0212   16.4767 C   0  0  0  0  0  0  0  0  0  0  0  0
   11.4844   39.8715   16.0583 O   0  0  0  0  0  0  0  0  0  0  0  0
   12.6903   41.0313   17.5902 O   0  0  0  0  0  0  0  0  0  0  0  0
    9.4738   43.6556   14.3381 N   0  0  0  0  0  0  0  0  0  0  0  0
    8.8681   44.8963   13.7946 C   0  0  2  0  0  0  0  0  0  0  0  0
    8.6187   44.7379   12.3495 C   0  0  0  0  0  0  0  0  0  0  0  0
    8.5336   43.5668   11.8870 O   0  0  0  0  0  0  0  0  0  0  0  0
    9.8596   45.9759   14.1375 C   0  0  0  0  0  0  0  0  0  0  0  0
    9.3718   47.2481   14.0458 O   0  0  0  0  0  0  0  0  0  0  0  0
    8.4610   45.8380   11.4640 N   0  0  0  0  0  0  0  0  0  0  0  0
    7.9487   45.6615   10.1522 C   0  0  1  0  0  0  0  0  0  0  0  0
    7.5219   47.0256    9.5486 C   0  0  0  0  0  0  0  0  0  0  0  0
    8.0925   48.0842   10.1989 O   0  0  0  0  0  0  0  0  0  0  0  0
    8.8105   44.9716    9.1843 C   0  0  0  0  0  0  0  0  0  0  0  0
    8.1847   44.1339    8.4356 O   0  0  0  0  0  0  0  0  0  0  0  0
    7.4543   49.5165    9.5117 P   0  0  1  0  0  5  0  0  0  0  0  0
    6.2802   49.1214    8.6523 O   0  0  0  0  0  0  0  0  0  0  0  0
    6.9317   50.5115   10.8010 O   0  0  0  0  0  0  0  0  0  0  0  0
    8.6348   50.3510    8.6677 O   0  0  0  0  0  0  0  0  0  0  0  0
   10.1682   45.1416    9.0144 N   0  0  0  0  0  0  0  0  0  0  0  0
   11.0141   45.7287    8.0149 C   0  0  2  0  0  0  0  0  0  0  0  0
   10.4693   46.6732    7.0933 C   0  0  0  0  0  0  0  0  0  0  0  0
    9.2174   46.9408    6.9587 O   0  0  0  0  0  0  0  0  0  0  0  0
   11.6954   44.4877    7.5014 C   0  0  0  0  0  0  0  0  0  0  0  0
   12.0954   43.8510    8.8436 C   0  0  0  0  0  0  0  0  0  0  0  0
   11.1840   44.5136    9.9034 C   0  0  0  0  0  0  0  0  0  0  0  0
   11.3490   47.4252    6.2254 N   0  0  0  0  0  0  0  0  0  0  0  0
   10.9686   48.3602    5.2050 C   0  0  2  0  0  0  0  0  0  0  0  0
   11.3195   47.8377    3.8562 C   0  0  0  0  0  0  0  0  0  0  0  0
   11.0128   48.4198    2.7785 O   0  0  0  0  0  0  0  0  0  0  0  0
   11.9334   49.5147    5.5509 C   0  0  0  0  0  0  0  0  0  0  0  0
   13.2346   48.7109    5.6135 C   0  0  0  0  0  0  0  0  0  0  0  0
   12.7847   47.3853    6.2234 C   0  0  0  0  0  0  0  0  0  0  0  0
   12.0418   46.6170    3.7295 N   0  0  0  0  0  0  0  0  0  0  0  0
   12.3569   45.9375    2.5006 C   0  0  2  0  0  0  0  0  0  0  0  0
   13.6397   46.4664    1.9220 C   0  0  0  0  0  0  0  0  0  0  0  0
   14.0444   47.6359    2.0401 O   0  0  0  0  0  0  0  0  0  0  0  0
   11.2162   45.9706    1.5253 C   0  0  0  0  0  0  0  0  0  0  0  0
   11.2035   47.2274    0.7555 C   0  0  0  0  0  0  0  0  0  0  0  0
   10.4027   48.1722    0.9189 O   0  0  0  0  0  0  0  0  0  0  0  0
   12.1954   47.3814   -0.2719 N   0  0  0  0  0  0  0  0  0  0  0  0
   14.4897   45.5883    1.1671 N   0  0  0  0  0  0  0  0  0  0  0  0
   15.8961   45.4746    1.2568 C   0  0  2  0  0  0  0  0  0  0  0  0
   16.4298   44.3422    0.4120 C   0  0  0  0  0  0  0  0  0  0  0  0
   17.1629   43.4524    0.9296 O   0  0  0  0  0  0  0  0  0  0  0  0
   16.4680   45.5246    2.6238 C   0  0  2  0  0  0  0  0  0  0  0  0
   17.8893   45.5194    2.5763 O   0  0  0  0  0  0  0  0  0  0  0  0
   16.1090   44.3521    3.5098 C   0  0  0  0  0  0  0  0  0  0  0  0
   16.1494   44.2207   -0.9770 N   0  0  0  0  0  0  0  0  0  0  0  0
   16.8298   43.1787   -1.7139 C   0  0  2  0  0  0  0  0  0  0  0  0
   18.2534   43.1883   -1.1805 C   0  0  0  0  0  0  0  0  0  0  0  0
   18.9614   42.0379   -0.9253 O   0  0  0  0  0  0  0  0  0  0  0  0
   16.8628   43.3468   -3.1854 C   0  0  0  0  0  0  0  0  0  0  0  0
   17.5993   42.3063   -3.7388 O   0  0  0  0  0  0  0  0  0  0  0  0
   18.8404   44.3015   -0.9517 O   0  0  0  0  0  0  0  0  0  0  0  0
  2  1  1  6
  2  3  1  0
  2  5  1  0
  3  4  2  0
  3  7  1  0
  5  6  1  0
  7  8  1  0
  8  9  1  0
  8 11  1  1
  9 10  2  0
  9 15  1  0
 11 12  1  0
 12 13  1  1
 12 14  1  0
 15 16  1  0
 16 17  1  0
 16 19  1  1
 17 18  2  0
 17 23  1  0
 19 20  1  0
 20 21  1  0
 20 22  2  0
 23 24  1  0
 24 25  1  0
 24 27  1  6
 25 26  2  0
 25 29  1  0
 27 28  1  0
 29 30  1  0
 30 31  1  6
 30 33  1  0
 31 32  1  0
 32 35  1  0
 33 34  2  0
 33 39  1  0
 35 36  2  0
 35 37  1  1
 35 38  1  0
 39 40  1  0
 39 45  1  0
 40 41  1  6
 40 43  1  0
 41 42  2  0
 41 46  1  0
 43 44  1  0
 44 45  1  0
 46 47  1  0
 46 52  1  0
 47 48  1  6
 47 50  1  0
 48 49  2  0
 48 53  1  0
 50 51  1  0
 51 52  1  0
 53 54  1  0
 54 55  1  0
 54 57  1  6
 55 56  2  0
 55 61  1  0
 57 58  1  0
 58 59  2  0
 58 60  1  0
 62 61  1  1
 62 63  1  0
 62 65  1  0
 63 64  2  0
 63 68  1  0
 65 66  1  0
 65 67  1  1
 68 69  1  0
 69 70  1  0
 69 72  1  6
 70 71  1  0
 70 74  2  0
 72 73  1  0
M  CHG  1   1   1
M  END
$$$$
