
     RDKit          3D

 74 75  0  0  0  0  0  0  0  0999 V2000
   10.5819   43.6330   18.6721 N   0  0  0  0  0  4  0  0  0  0  0  0
    9.6127   42.7425   18.0518 C   0  0  2  0  0  0  0  0  0  0  0  0
   10.3162   41.9203   17.0259 C   0  0  0  0  0  0  0  0  0  0  0  0
   11.3381   41.3242   17.3726 O   0  0  0  0  0  0  0  0  0  0  0  0
    8.5682   43.6402   17.3881 C   0  0  0  0  0  0  0  0  0  0  0  0
    7.7533   44.2259   18.3311 O   0  0  0  0  0  0  0  0  0  0  0  0
    9.8051   41.8459   15.7089 N   0  0  0  0  0  0  0  0  0  0  0  0
   10.3173   41.1225   14.6094 C   0  0  2  0  0  0  0  0  0  0  0  0
   11.6148   41.6006   14.1155 C   0  0  0  0  0  0  0  0  0  0  0  0
   11.7101   42.5830   13.2998 O   0  0  0  0  0  0  0  0  0  0  0  0
    9.3362   40.7286   13.5242 C   0  0  0  0  0  0  0  0  0  0  0  0
    9.9651   40.2336   12.2695 C   0  0  1  0  0  0  0  0  0  0  0  0
   10.2848   38.7484   12.4954 C   0  0  0  0  0  0  0  0  0  0  0  0
    8.9144   40.2579   11.1301 C   0  0  0  0  0  0  0  0  0  0  0  0
   12.8370   41.0192   14.5015 N   0  0  0  0  0  0  0  0  0  0  0  0
   14.1195   41.4977   14.0346 C   0  0  2  0  0  0  0  0  0  0  0  0
   13.9098   42.1687   12.7499 C   0  0  0  0  0  0  0  0  0  0  0  0
   14.2485   43.3960   12.6378 O   0  0  0  0  0  0  0  0  0  0  0  0
   15.0651   40.3280   13.7998 C   0  0  0  0  0  0  0  0  0  0  0  0
   16.4734   40.7754   13.8378 C   0  0  0  0  0  0  0  0  0  0  0  0
   16.8810   41.9527   13.2653 O   0  0  0  0  0  0  0  0  0  0  0  0
   17.3229   40.0481   14.4155 O   0  0  0  0  0  0  0  0  0  0  0  0
   13.3535   41.5380   11.6276 N   0  0  0  0  0  0  0  0  0  0  0  0
   14.0016   41.6968   10.3023 C   0  0  2  0  0  0  0  0  0  0  0  0
   13.1006   41.2031    9.2441 C   0  0  0  0  0  0  0  0  0  0  0  0
   13.6170   40.6358    8.2421 O   0  0  0  0  0  0  0  0  0  0  0  0
   15.2918   40.9308   10.4247 C   0  0  0  0  0  0  0  0  0  0  0  0
   16.0607   40.9252    9.2960 O   0  0  0  0  0  0  0  0  0  0  0  0
   11.6866   41.3281    9.3081 N   0  0  0  0  0  0  0  0  0  0  0  0
   11.0541   42.5966    9.2363 C   0  0  1  0  0  0  0  0  0  0  0  0
   11.6769   43.5724   10.2694 C   0  0  0  0  0  0  0  0  0  0  0  0
   10.9321   44.7078   10.4281 O   0  0  0  0  0  0  0  0  0  0  0  0
   11.0279   43.2582    7.9259 C   0  0  0  0  0  0  0  0  0  0  0  0
   12.1174   43.8757    7.6335 O   0  0  0  0  0  0  0  0  0  0  0  0
   11.8201   46.0059    9.7518 P   0  0  1  0  0  5  0  0  0  0  0  0
   13.2410   45.8852   10.2411 O   0  0  0  0  0  0  0  0  0  0  0  0
   11.7660   45.8291    8.0514 O   0  0  0  0  0  0  0  0  0  0  0  0
   11.1156   47.4751   10.1359 O   0  0  0  0  0  0  0  0  0  0  0  0
    9.9859   43.2684    7.0229 N   0  0  0  0  0  0  0  0  0  0  0  0
    9.7669   43.8075    5.7112 C   0  0  2  0  0  0  0  0  0  0  0  0
   10.8847   44.1537    4.8932 C   0  0  0  0  0  0  0  0  0  0  0  0
   12.0952   44.2878    5.3098 O   0  0  0  0  0  0  0  0  0  0  0  0
    8.7261   44.8461    6.0367 C   0  0  0  0  0  0  0  0  0  0  0  0
    7.7781   43.9877    6.8919 C   0  0  0  0  0  0  0  0  0  0  0  0
    8.6204   42.7742    7.3513 C   0  0  0  0  0  0  0  0  0  0  0  0
   10.7014   44.3717    3.4750 N   0  0  0  0  0  0  0  0  0  0  0  0
   11.7150   44.6839    2.5078 C   0  0  2  0  0  0  0  0  0  0  0  0
   11.5290   46.0622    1.9778 C   0  0  0  0  0  0  0  0  0  0  0  0
   12.1626   46.5227    0.9875 O   0  0  0  0  0  0  0  0  0  0  0  0
   11.3269   43.6765    1.4042 C   0  0  0  0  0  0  0  0  0  0  0  0
    9.8366   44.0122    1.3057 C   0  0  0  0  0  0  0  0  0  0  0  0
    9.4601   44.3099    2.7552 C   0  0  0  0  0  0  0  0  0  0  0  0
   10.5934   46.9427    2.5920 N   0  0  0  0  0  0  0  0  0  0  0  0
   10.5409   48.3726    2.4368 C   0  0  2  0  0  0  0  0  0  0  0  0
   11.8158   49.0011    2.9263 C   0  0  0  0  0  0  0  0  0  0  0  0
   11.9443   49.5988    4.0088 O   0  0  0  0  0  0  0  0  0  0  0  0
    9.3147   48.9670    3.0664 C   0  0  0  0  0  0  0  0  0  0  0  0
    8.1308   48.1178    2.8437 C   0  0  0  0  0  0  0  0  0  0  0  0
    6.9726   48.3661    3.2408 O   0  0  0  0  0  0  0  0  0  0  0  0
    8.3225   46.8991    2.1081 N   0  0  0  0  0  0  0  0  0  0  0  0
   12.9969   48.9306    2.1118 N   0  0  0  0  0  0  0  0  0  0  0  0
   14.2539   49.5214    2.3764 C   0  0  2  0  0  0  0  0  0  0  0  0
   14.4992   50.7423    1.5220 C   0  0  0  0  0  0  0  0  0  0  0  0
   15.5613   51.4133    1.6602 O   0  0  0  0  0  0  0  0  0  0  0  0
   15.4087   48.5938    2.4430 C   0  0  2  0  0  0  0  0  0  0  0  0
   15.6230   47.9643    1.1860 O   0  0  0  0  0  0  0  0  0  0  0  0
   15.2550   47.4517    3.4231 C   0  0  0  0  0  0  0  0  0  0  0  0
   13.5709   51.1962    0.5448 N   0  0  0  0  0  0  0  0  0  0  0  0
   14.0946   51.8812   -0.6164 C   0  0  2  0  0  0  0  0  0  0  0  0
   13.0106   52.8730   -1.0071 C   0  0  0  0  0  0  0  0  0  0  0  0
   12.3827   53.6882   -0.0955 O   0  0  0  0  0  0  0  0  0  0  0  0
   14.4096   51.0236   -1.7825 C   0  0  0  0  0  0  0  0  0  0  0  0
   14.8532   51.8294   -2.8243 O   0  0  0  0  0  0  0  0  0  0  0  0
   12.6497   52.9732   -2.2302 O   0  0  0  0  0  0  0  0  0  0  0  0
  2  1  1  6
  2  3  1  0
  2  5  1  0
  3  4  2  0
  3  7  1  0
  5  6  1  0
  7  8  1  0
  8  9  1  0
  8 11  1  6
  9 10  2  0
  9 15  1  0
 11 12  1  0
 12 13  1  1
 12 14  1  0
 15 16  1  0
 16 17  1  0
 16 19  1  6
 17 18  2  0
 17 23  1  0
 19 20  1  0
 20 21  1  0
 20 22  2  0
 23 24  1  0
 24 25  1  0
 24 27  1  1
 25 26  2  0
 25 29  1  0
 27 28  1  0
 29 30  1  0
 30 31  1  1
 30 33  1  0
 31 32  1  0
 32 35  1  0
 33 34  2  0
 33 39  1  0
 35 36  2  0
 35 37  1  6
 35 38  1  0
 39 40  1  0
 39 45  1  0
 40 41  1  1
 40 43  1  0
 41 42  2  0
 41 46  1  0
 43 44  1  0
 44 45  1  0
 46 47  1  0
 46 52  1  0
 47 48  1  6
 47 50  1  0
 48 49  2  0
 48 53  1  0
 50 51  1  0
 51 52  1  0
 53 54  1  0
 54 55  1  0
 54 57  1  1
 55 56  2  0
 55 61  1  0
 57 58  1  0
 58 59  2  0
 58 60  1  0
 62 61  1  6
 62 63  1  0
 62 65  1  0
 63 64  2  0
 63 68  1  0
 65 66  1  0
 65 67  1  1
 68 69  1  0
 69 70  1  0
 69 72  1  6
 70 71  1  0
 70 74  2  0
 72 73  1  0
M  CHG  1   1   1
M  END
$$$$
