
     RDKit          3D

 74 75  0  0  0  0  0  0  0  0999 V2000
   21.8908   38.2823   16.7628 N   0  0  0  0  0  4  0  0  0  0  0  0
   20.8308   39.2576   16.5569 C   0  0  2  0  0  0  0  0  0  0  0  0
   20.0918   38.8958   15.3134 C   0  0  0  0  0  0  0  0  0  0  0  0
   20.4316   37.8675   14.7242 O   0  0  0  0  0  0  0  0  0  0  0  0
   21.5201   40.6119   16.3901 C   0  0  0  0  0  0  0  0  0  0  0  0
   20.6012   41.6005   16.1165 O   0  0  0  0  0  0  0  0  0  0  0  0
   19.0416   39.7229   14.8504 N   0  0  0  0  0  0  0  0  0  0  0  0
   18.1986   39.5271   13.7343 C   0  0  2  0  0  0  0  0  0  0  0  0
   17.8117   40.7605   13.0380 C   0  0  0  0  0  0  0  0  0  0  0  0
   17.4211   41.8029   13.6708 O   0  0  0  0  0  0  0  0  0  0  0  0
   17.0854   38.5097   13.8794 C   0  0  0  0  0  0  0  0  0  0  0  0
   16.3163   38.2499   12.6322 C   0  0  1  0  0  0  0  0  0  0  0  0
   15.6760   36.8631   12.7924 C   0  0  0  0  0  0  0  0  0  0  0  0
   15.1286   39.2428   12.5512 C   0  0  0  0  0  0  0  0  0  0  0  0
   17.8437   40.8851   11.6365 N   0  0  0  0  0  0  0  0  0  0  0  0
   17.6634   42.1470   10.9531 C   0  0  2  0  0  0  0  0  0  0  0  0
   17.9499   41.9354    9.5327 C   0  0  0  0  0  0  0  0  0  0  0  0
   18.7794   41.0200    9.2052 O   0  0  0  0  0  0  0  0  0  0  0  0
   18.6528   43.1775   11.4790 C   0  0  0  0  0  0  0  0  0  0  0  0
   19.9984   42.5844   11.6295 C   0  0  0  0  0  0  0  0  0  0  0  0
   20.4808   42.1679   12.8435 O   0  0  0  0  0  0  0  0  0  0  0  0
   20.7216   42.4601   10.6069 O   0  0  0  0  0  0  0  0  0  0  0  0
   17.3632   42.6858    8.5033 N   0  0  0  0  0  0  0  0  0  0  0  0
   16.5047   42.0077    7.5009 C   0  0  2  0  0  0  0  0  0  0  0  0
   15.0886   42.3323    7.7558 C   0  0  0  0  0  0  0  0  0  0  0  0
   14.2170   41.4785    7.4335 O   0  0  0  0  0  0  0  0  0  0  0  0
   16.8420   40.5480    7.6484 C   0  0  0  0  0  0  0  0  0  0  0  0
   16.8811   39.8505    6.4749 O   0  0  0  0  0  0  0  0  0  0  0  0
   14.6670   43.5506    8.3533 N   0  0  0  0  0  0  0  0  0  0  0  0
   13.2974   43.9214    8.3854 C   0  0  1  0  0  0  0  0  0  0  0  0
   13.0452   44.9694    9.5013 C   0  0  0  0  0  0  0  0  0  0  0  0
   12.7458   46.2047    8.9975 O   0  0  0  0  0  0  0  0  0  0  0  0
   12.7093   44.4192    7.1355 C   0  0  0  0  0  0  0  0  0  0  0  0
   13.3829   45.3664    6.5853 O   0  0  0  0  0  0  0  0  0  0  0  0
   12.5108   47.2599   10.3250 P   0  0  1  0  0  5  0  0  0  0  0  0
   12.9483   48.6361    9.8916 O   0  0  0  0  0  0  0  0  0  0  0  0
   10.8390   47.2601   10.6862 O   0  0  0  0  0  0  0  0  0  0  0  0
   13.3264   46.7072   11.6784 O   0  0  0  0  0  0  0  0  0  0  0  0
   11.5542   43.9746    6.5279 N   0  0  0  0  0  0  0  0  0  0  0  0
   10.5424   44.5555    5.6924 C   0  0  2  0  0  0  0  0  0  0  0  0
   10.8213   45.7591    4.9770 C   0  0  0  0  0  0  0  0  0  0  0  0
   11.8450   46.5157    5.1688 O   0  0  0  0  0  0  0  0  0  0  0  0
    9.3724   44.5001    6.6388 C   0  0  0  0  0  0  0  0  0  0  0  0
    9.5053   43.0424    7.1124 C   0  0  0  0  0  0  0  0  0  0  0  0
   10.9619   42.6339    6.7895 C   0  0  0  0  0  0  0  0  0  0  0  0
    9.9216   46.2052    3.9359 N   0  0  0  0  0  0  0  0  0  0  0  0
    9.9623   47.4553    3.2317 C   0  0  2  0  0  0  0  0  0  0  0  0
    8.7761   48.2881    3.5703 C   0  0  0  0  0  0  0  0  0  0  0  0
    7.6735   48.2170    2.9591 O   0  0  0  0  0  0  0  0  0  0  0  0
    9.8010   46.9345    1.7873 C   0  0  0  0  0  0  0  0  0  0  0  0
    8.5720   46.0477    2.0027 C   0  0  0  0  0  0  0  0  0  0  0  0
    8.8094   45.4731    3.3974 C   0  0  0  0  0  0  0  0  0  0  0  0
    8.8459   49.2292    4.6367 N   0  0  0  0  0  0  0  0  0  0  0  0
    7.7781   50.0792    5.0936 C   0  0  2  0  0  0  0  0  0  0  0  0
    7.7383   51.3498    4.2911 C   0  0  0  0  0  0  0  0  0  0  0  0
    7.3866   52.4582    4.7308 O   0  0  0  0  0  0  0  0  0  0  0  0
    7.8401   50.3223    6.5737 C   0  0  0  0  0  0  0  0  0  0  0  0
    6.7096   51.1506    7.0301 C   0  0  0  0  0  0  0  0  0  0  0  0
    6.5752   52.3752    6.8227 O   0  0  0  0  0  0  0  0  0  0  0  0
    5.6728   50.4965    7.7785 N   0  0  0  0  0  0  0  0  0  0  0  0
    8.1254   51.3248    2.9080 N   0  0  0  0  0  0  0  0  0  0  0  0
    8.6026   52.4077    2.1344 C   0  0  2  0  0  0  0  0  0  0  0  0
    8.1231   52.3392    0.7040 C   0  0  0  0  0  0  0  0  0  0  0  0
    7.6096   53.3553    0.1552 O   0  0  0  0  0  0  0  0  0  0  0  0
   10.0461   52.7186    2.2691 C   0  0  2  0  0  0  0  0  0  0  0  0
   10.2569   53.7142    3.2625 O   0  0  0  0  0  0  0  0  0  0  0  0
   10.6988   53.2751    1.0230 C   0  0  0  0  0  0  0  0  0  0  0  0
    8.2147   51.1575   -0.0820 N   0  0  0  0  0  0  0  0  0  0  0  0
    7.1823   50.9206   -1.0669 C   0  0  2  0  0  0  0  0  0  0  0  0
    6.0355   51.8311   -0.6580 C   0  0  0  0  0  0  0  0  0  0  0  0
    5.4560   52.7323   -1.5192 O   0  0  0  0  0  0  0  0  0  0  0  0
    6.6862   49.5277   -1.1577 C   0  0  0  0  0  0  0  0  0  0  0  0
    5.7194   49.4605   -2.1539 O   0  0  0  0  0  0  0  0  0  0  0  0
    5.5712   51.7752    0.5326 O   0  0  0  0  0  0  0  0  0  0  0  0
  2  1  1  6
  2  3  1  0
  2  5  1  0
  3  4  2  0
  3  7  1  0
  5  6  1  0
  7  8  1  0
  8  9  1  0
  8 11  1  1
  9 10  2  0
  9 15  1  0
 11 12  1  0
 12 13  1  1
 12 14  1  0
 15 16  1  0
 16 17  1  0
 16 19  1  1
 17 18  2  0
 17 23  1  0
 19 20  1  0
 20 21  1  0
 20 22  2  0
 23 24  1  0
 24 25  1  0
 24 27  1  1
 25 26  2  0
 25 29  1  0
 27 28  1  0
 29 30  1  0
 30 31  1  1
 30 33  1  0
 31 32  1  0
 32 35  1  0
 33 34  2  0
 33 39  1  0
 35 36  2  0
 35 37  1  1
 35 38  1  0
 39 40  1  0
 39 45  1  0
 40 41  1  1
 40 43  1  0
 41 42  2  0
 41 46  1  0
 43 44  1  0
 44 45  1  0
 46 47  1  0
 46 52  1  0
 47 48  1  1
 47 50  1  0
 48 49  2  0
 48 53  1  0
 50 51  1  0
 51 52  1  0
 53 54  1  0
 54 55  1  0
 54 57  1  1
 55 56  2  0
 55 61  1  0
 57 58  1  0
 58 59  2  0
 58 60  1  0
 62 61  1  6
 62 63  1  0
 62 65  1  0
 63 64  2  0
 63 68  1  0
 65 66  1  0
 65 67  1  6
 68 69  1  0
 69 70  1  0
 69 72  1  1
 70 71  1  0
 70 74  2  0
 72 73  1  0
M  CHG  1   1   1
M  END
$$$$
