
     RDKit          3D

 74 75  0  0  0  0  0  0  0  0999 V2000
   23.7860   36.2240   14.0609 N   0  0  0  0  0  4  0  0  0  0  0  0
   23.1691   37.5138   13.7906 C   0  0  2  0  0  0  0  0  0  0  0  0
   21.7652   37.2813   13.3452 C   0  0  0  0  0  0  0  0  0  0  0  0
   21.4855   36.1698   12.8910 O   0  0  0  0  0  0  0  0  0  0  0  0
   23.9843   38.1523   12.6659 C   0  0  0  0  0  0  0  0  0  0  0  0
   23.9376   39.5264   12.7443 O   0  0  0  0  0  0  0  0  0  0  0  0
   20.8095   38.3188   13.4526 N   0  0  0  0  0  0  0  0  0  0  0  0
   19.4786   38.3369   12.9804 C   0  0  2  0  0  0  0  0  0  0  0  0
   19.2864   39.0746   11.7256 C   0  0  0  0  0  0  0  0  0  0  0  0
   20.2092   39.1633   10.8424 O   0  0  0  0  0  0  0  0  0  0  0  0
   18.3841   38.5442   14.0073 C   0  0  0  0  0  0  0  0  0  0  0  0
   18.4895   37.6741   15.2101 C   0  0  1  0  0  0  0  0  0  0  0  0
   17.4527   38.1916   16.2182 C   0  0  0  0  0  0  0  0  0  0  0  0
   18.0250   36.2414   14.8434 C   0  0  0  0  0  0  0  0  0  0  0  0
   18.0830   39.7305   11.4053 N   0  0  0  0  0  0  0  0  0  0  0  0
   17.8817   40.4465   10.1648 C   0  0  2  0  0  0  0  0  0  0  0  0
   17.2886   41.7464   10.4858 C   0  0  0  0  0  0  0  0  0  0  0  0
   16.2337   41.7768   11.2067 O   0  0  0  0  0  0  0  0  0  0  0  0
   16.9016   39.6947    9.2752 C   0  0  0  0  0  0  0  0  0  0  0  0
   16.1297   40.6333    8.4337 C   0  0  0  0  0  0  0  0  0  0  0  0
   15.1724   41.4641    8.9563 O   0  0  0  0  0  0  0  0  0  0  0  0
   16.3623   40.6672    7.1970 O   0  0  0  0  0  0  0  0  0  0  0  0
   17.8144   42.9689   10.0433 N   0  0  0  0  0  0  0  0  0  0  0  0
   17.1443   44.2359   10.4271 C   0  0  2  0  0  0  0  0  0  0  0  0
   15.6824   44.0411   10.4458 C   0  0  0  0  0  0  0  0  0  0  0  0
   15.2316   42.9032   10.1383 O   0  0  0  0  0  0  0  0  0  0  0  0
   17.6233   45.2343    9.4072 C   0  0  0  0  0  0  0  0  0  0  0  0
   18.8422   44.9506    8.8606 O   0  0  0  0  0  0  0  0  0  0  0  0
   14.7670   45.0678   10.8022 N   0  0  0  0  0  0  0  0  0  0  0  0
   13.3655   44.8831   10.6761 C   0  0  1  0  0  0  0  0  0  0  0  0
   12.6285   45.4637   11.9118 C   0  0  0  0  0  0  0  0  0  0  0  0
   12.0912   46.6966   11.6660 O   0  0  0  0  0  0  0  0  0  0  0  0
   12.7277   45.4084    9.4625 C   0  0  0  0  0  0  0  0  0  0  0  0
   13.1116   46.5940    9.1451 O   0  0  0  0  0  0  0  0  0  0  0  0
   11.3178   47.2178   13.1016 P   0  0  1  0  0  5  0  0  0  0  0  0
   10.8143   45.9891   13.8157 O   0  0  0  0  0  0  0  0  0  0  0  0
   12.4948   48.0120   14.0551 O   0  0  0  0  0  0  0  0  0  0  0  0
   10.1065   48.3217   12.7600 O   0  0  0  0  0  0  0  0  0  0  0  0
   11.8003   44.7668    8.6691 N   0  0  0  0  0  0  0  0  0  0  0  0
   10.6761   45.1670    7.8721 C   0  0  2  0  0  0  0  0  0  0  0  0
   10.5612   46.5235    7.4420 C   0  0  0  0  0  0  0  0  0  0  0  0
   10.3301   47.5287    8.2122 O   0  0  0  0  0  0  0  0  0  0  0  0
    9.5652   44.5371    8.6701 C   0  0  0  0  0  0  0  0  0  0  0  0
   10.1588   43.1297    8.8536 C   0  0  0  0  0  0  0  0  0  0  0  0
   11.6767   43.2848    8.5988 C   0  0  0  0  0  0  0  0  0  0  0  0
   10.7189   46.8530    6.0423 N   0  0  0  0  0  0  0  0  0  0  0  0
   11.1280   48.1126    5.4889 C   0  0  2  0  0  0  0  0  0  0  0  0
   10.0103   48.7433    4.7353 C   0  0  0  0  0  0  0  0  0  0  0  0
   10.1363   49.7923    4.0439 O   0  0  0  0  0  0  0  0  0  0  0  0
   12.1815   47.6116    4.4776 C   0  0  0  0  0  0  0  0  0  0  0  0
   11.3366   46.5405    3.7831 C   0  0  0  0  0  0  0  0  0  0  0  0
   10.5015   45.9727    4.9284 C   0  0  0  0  0  0  0  0  0  0  0  0
    8.7103   48.1630    4.7683 N   0  0  0  0  0  0  0  0  0  0  0  0
    7.4598   48.8684    4.6678 C   0  0  2  0  0  0  0  0  0  0  0  0
    7.4523   49.7535    3.4526 C   0  0  0  0  0  0  0  0  0  0  0  0
    6.5666   50.5828    3.1821 O   0  0  0  0  0  0  0  0  0  0  0  0
    7.1204   49.6044    5.9313 C   0  0  0  0  0  0  0  0  0  0  0  0
    6.8168   48.6718    7.0315 C   0  0  0  0  0  0  0  0  0  0  0  0
    6.5006   48.9982    8.1951 O   0  0  0  0  0  0  0  0  0  0  0  0
    6.8912   47.2664    6.7440 N   0  0  0  0  0  0  0  0  0  0  0  0
    8.5294   49.6643    2.5064 N   0  0  0  0  0  0  0  0  0  0  0  0
    8.6590   50.3726    1.2897 C   0  0  2  0  0  0  0  0  0  0  0  0
    8.4649   49.4785    0.0881 C   0  0  0  0  0  0  0  0  0  0  0  0
    9.2671   48.5276   -0.1342 O   0  0  0  0  0  0  0  0  0  0  0  0
    9.8301   51.2755    1.1829 C   0  0  2  0  0  0  0  0  0  0  0  0
   11.0018   50.6428    1.6820 O   0  0  0  0  0  0  0  0  0  0  0  0
    9.7207   52.5602    1.9743 C   0  0  0  0  0  0  0  0  0  0  0  0
    7.4006   49.6559   -0.8385 N   0  0  0  0  0  0  0  0  0  0  0  0
    7.3784   48.8087   -2.0105 C   0  0  2  0  0  0  0  0  0  0  0  0
    8.1563   49.5795   -3.0650 C   0  0  0  0  0  0  0  0  0  0  0  0
    7.8348   50.8629   -3.4384 O   0  0  0  0  0  0  0  0  0  0  0  0
    6.0353   48.4807   -2.5428 C   0  0  0  0  0  0  0  0  0  0  0  0
    6.1828   47.8438   -3.7692 O   0  0  0  0  0  0  0  0  0  0  0  0
    9.1574   49.0333   -3.6442 O   0  0  0  0  0  0  0  0  0  0  0  0
  2  1  1  6
  2  3  1  0
  2  5  1  0
  3  4  2  0
  3  7  1  0
  5  6  1  0
  7  8  1  0
  8  9  1  0
  8 11  1  1
  9 10  2  0
  9 15  1  0
 11 12  1  0
 12 13  1  1
 12 14  1  0
 15 16  1  0
 16 17  1  0
 16 19  1  6
 17 18  2  0
 17 23  1  0
 19 20  1  0
 20 21  1  0
 20 22  2  0
 23 24  1  0
 24 25  1  0
 24 27  1  6
 25 26  2  0
 25 29  1  0
 27 28  1  0
 29 30  1  0
 30 31  1  1
 30 33  1  0
 31 32  1  0
 32 35  1  0
 33 34  2  0
 33 39  1  0
 35 36  2  0
 35 37  1  1
 35 38  1  0
 39 40  1  0
 39 45  1  0
 40 41  1  1
 40 43  1  0
 41 42  2  0
 41 46  1  0
 43 44  1  0
 44 45  1  0
 46 47  1  0
 46 52  1  0
 47 48  1  6
 47 50  1  0
 48 49  2  0
 48 53  1  0
 50 51  1  0
 51 52  1  0
 53 54  1  0
 54 55  1  0
 54 57  1  1
 55 56  2  0
 55 61  1  0
 57 58  1  0
 58 59  2  0
 58 60  1  0
 62 61  1  1
 62 63  1  0
 62 65  1  0
 63 64  2  0
 63 68  1  0
 65 66  1  0
 65 67  1  1
 68 69  1  0
 69 70  1  0
 69 72  1  6
 70 71  1  0
 70 74  2  0
 72 73  1  0
M  CHG  1   1   1
M  END
$$$$
