
     RDKit          3D

 74 75  0  0  0  0  0  0  0  0999 V2000
   14.9907   51.7420    2.0670 N   0  0  0  0  0  4  0  0  0  0  0  0
   14.3027   50.7585    1.2444 C   0  0  2  0  0  0  0  0  0  0  0  0
   13.0865   50.3000    1.9752 C   0  0  0  0  0  0  0  0  0  0  0  0
   12.5008   51.1214    2.6838 O   0  0  0  0  0  0  0  0  0  0  0  0
   15.2791   49.5972    1.0569 C   0  0  0  0  0  0  0  0  0  0  0  0
   15.3923   49.2604   -0.2736 O   0  0  0  0  0  0  0  0  0  0  0  0
   12.6438   48.9631    1.8402 N   0  0  0  0  0  0  0  0  0  0  0  0
   11.3866   48.4965    1.3973 C   0  0  2  0  0  0  0  0  0  0  0  0
   11.2983   47.0397    1.2370 C   0  0  0  0  0  0  0  0  0  0  0  0
   11.7336   46.4446    0.1901 O   0  0  0  0  0  0  0  0  0  0  0  0
   10.6989   49.2933    0.3074 C   0  0  0  0  0  0  0  0  0  0  0  0
    9.3356   48.8124   -0.0460 C   0  0  1  0  0  0  0  0  0  0  0  0
    9.4916   47.9282   -1.2922 C   0  0  0  0  0  0  0  0  0  0  0  0
    8.8265   47.8632    1.0688 C   0  0  0  0  0  0  0  0  0  0  0  0
   10.7348   46.1994    2.2154 N   0  0  0  0  0  0  0  0  0  0  0  0
   11.5042   45.2206    2.9515 C   0  0  2  0  0  0  0  0  0  0  0  0
   10.7065   44.7933    4.1028 C   0  0  0  0  0  0  0  0  0  0  0  0
    9.4414   44.6788    3.9624 O   0  0  0  0  0  0  0  0  0  0  0  0
   12.7866   45.8475    3.4807 C   0  0  0  0  0  0  0  0  0  0  0  0
   13.9272   45.5394    2.5924 C   0  0  0  0  0  0  0  0  0  0  0  0
   13.7782   44.8157    1.4374 O   0  0  0  0  0  0  0  0  0  0  0  0
   15.0710   45.9570    2.9111 O   0  0  0  0  0  0  0  0  0  0  0  0
   11.2546   44.5015    5.3603 N   0  0  0  0  0  0  0  0  0  0  0  0
   10.3952   43.9059    6.4132 C   0  0  2  0  0  0  0  0  0  0  0  0
   11.1809   43.7088    7.6458 C   0  0  0  0  0  0  0  0  0  0  0  0
   12.2691   43.0754    7.5608 O   0  0  0  0  0  0  0  0  0  0  0  0
    9.8796   42.6329    5.7968 C   0  0  0  0  0  0  0  0  0  0  0  0
    9.0951   41.8776    6.6209 O   0  0  0  0  0  0  0  0  0  0  0  0
   10.7741   44.2059    8.9132 N   0  0  0  0  0  0  0  0  0  0  0  0
   11.7126   44.7524    9.8271 C   0  0  1  0  0  0  0  0  0  0  0  0
   10.9935   45.6401   10.8770 C   0  0  0  0  0  0  0  0  0  0  0  0
    9.9634   44.9862   11.4939 O   0  0  0  0  0  0  0  0  0  0  0  0
   12.5864   43.8078   10.5340 C   0  0  0  0  0  0  0  0  0  0  0  0
   11.9567   42.9964   11.3078 O   0  0  0  0  0  0  0  0  0  0  0  0
    8.5522   45.2515   10.5617 P   0  0  1  0  0  5  0  0  0  0  0  0
    8.1207   43.9185   10.0050 O   0  0  0  0  0  0  0  0  0  0  0  0
    7.3531   45.8653   11.6156 O   0  0  0  0  0  0  0  0  0  0  0  0
    8.8276   46.4006    9.3758 O   0  0  0  0  0  0  0  0  0  0  0  0
   13.9590   43.7177   10.4388 N   0  0  0  0  0  0  0  0  0  0  0  0
   15.0155   43.2033   11.2626 C   0  0  2  0  0  0  0  0  0  0  0  0
   14.7161   42.2531   12.2852 C   0  0  0  0  0  0  0  0  0  0  0  0
   14.3182   41.0459   12.0823 O   0  0  0  0  0  0  0  0  0  0  0  0
   15.7084   44.4926   11.6169 C   0  0  0  0  0  0  0  0  0  0  0  0
   15.8029   45.1171   10.2141 C   0  0  0  0  0  0  0  0  0  0  0  0
   14.7446   44.3789    9.3608 C   0  0  0  0  0  0  0  0  0  0  0  0
   14.8647   42.6191   13.6767 N   0  0  0  0  0  0  0  0  0  0  0  0
   14.7964   41.7469   14.8146 C   0  0  2  0  0  0  0  0  0  0  0  0
   13.5983   42.0554   15.6421 C   0  0  0  0  0  0  0  0  0  0  0  0
   13.4092   41.5905   16.8007 O   0  0  0  0  0  0  0  0  0  0  0  0
   16.0534   42.2251   15.5726 C   0  0  0  0  0  0  0  0  0  0  0  0
   15.7685   43.7290   15.5568 C   0  0  0  0  0  0  0  0  0  0  0  0
   15.1186   43.9361   14.1906 C   0  0  0  0  0  0  0  0  0  0  0  0
   12.5854   42.9194   15.1369 N   0  0  0  0  0  0  0  0  0  0  0  0
   11.1947   42.9096   15.5077 C   0  0  2  0  0  0  0  0  0  0  0  0
   10.3294   43.1786   14.3081 C   0  0  0  0  0  0  0  0  0  0  0  0
    9.0943   43.0409   14.2767 O   0  0  0  0  0  0  0  0  0  0  0  0
   10.9074   43.8321   16.6566 C   0  0  0  0  0  0  0  0  0  0  0  0
   11.2706   45.2233   16.3327 C   0  0  0  0  0  0  0  0  0  0  0  0
   11.1051   46.2108   17.0797 O   0  0  0  0  0  0  0  0  0  0  0  0
   11.8652   45.4675   15.0482 N   0  0  0  0  0  0  0  0  0  0  0  0
   10.9355   43.6274   13.0856 N   0  0  0  0  0  0  0  0  0  0  0  0
   10.2952   43.8456   11.8441 C   0  0  2  0  0  0  0  0  0  0  0  0
   10.1811   42.5769   11.0328 C   0  0  0  0  0  0  0  0  0  0  0  0
   10.7154   42.5016    9.8900 O   0  0  0  0  0  0  0  0  0  0  0  0
   10.7660   45.0158   11.0649 C   0  0  2  0  0  0  0  0  0  0  0  0
   10.9767   44.6633    9.7033 O   0  0  0  0  0  0  0  0  0  0  0  0
   12.0867   45.5969   11.5198 C   0  0  0  0  0  0  0  0  0  0  0  0
    9.4796   41.4292   11.4949 N   0  0  0  0  0  0  0  0  0  0  0  0
    8.2809   41.0401   10.7852 C   0  0  2  0  0  0  0  0  0  0  0  0
    7.4099   42.2861   10.7765 C   0  0  0  0  0  0  0  0  0  0  0  0
    7.3495   43.1457    9.7053 O   0  0  0  0  0  0  0  0  0  0  0  0
    7.5163   39.9187   11.3788 C   0  0  0  0  0  0  0  0  0  0  0  0
    6.9066   39.2015   10.3564 O   0  0  0  0  0  0  0  0  0  0  0  0
    6.6923   42.5688   11.7969 O   0  0  0  0  0  0  0  0  0  0  0  0
  2  1  1  1
  2  3  1  0
  2  5  1  0
  3  4  2  0
  3  7  1  0
  5  6  1  0
  7  8  1  0
  8  9  1  0
  8 11  1  6
  9 10  2  0
  9 15  1  0
 11 12  1  0
 12 13  1  6
 12 14  1  0
 15 16  1  0
 16 17  1  0
 16 19  1  1
 17 18  2  0
 17 23  1  0
 19 20  1  0
 20 21  1  0
 20 22  2  0
 23 24  1  0
 24 25  1  0
 24 27  1  6
 25 26  2  0
 25 29  1  0
 27 28  1  0
 29 30  1  0
 30 31  1  1
 30 33  1  0
 31 32  1  0
 32 35  1  0
 33 34  2  0
 33 39  1  0
 35 36  2  0
 35 37  1  1
 35 38  1  0
 39 40  1  0
 39 45  1  0
 40 41  1  1
 40 43  1  0
 41 42  2  0
 41 46  1  0
 43 44  1  0
 44 45  1  0
 46 47  1  0
 46 52  1  0
 47 48  1  1
 47 50  1  0
 48 49  2  0
 48 53  1  0
 50 51  1  0
 51 52  1  0
 53 54  1  0
 54 55  1  0
 54 57  1  1
 55 56  2  0
 55 61  1  0
 57 58  1  0
 58 59  2  0
 58 60  1  0
 62 61  1  1
 62 63  1  0
 62 65  1  0
 63 64  2  0
 63 68  1  0
 65 66  1  0
 65 67  1  1
 68 69  1  0
 69 70  1  0
 69 72  1  1
 70 71  1  0
 70 74  2  0
 72 73  1  0
M  CHG  1   1   1
M  END
$$$$
