
     RDKit          3D

 74 75  0  0  0  0  0  0  0  0999 V2000
    5.8164   52.5547    5.4517 N   0  0  0  0  0  4  0  0  0  0  0  0
    6.4899   52.5759    4.1620 C   0  0  2  0  0  0  0  0  0  0  0  0
    6.7165   51.1685    3.7249 C   0  0  0  0  0  0  0  0  0  0  0  0
    6.0667   50.2834    4.2853 O   0  0  0  0  0  0  0  0  0  0  0  0
    7.8260   53.2839    4.3870 C   0  0  0  0  0  0  0  0  0  0  0  0
    8.2030   53.9898    3.2663 O   0  0  0  0  0  0  0  0  0  0  0  0
    7.6510   50.8893    2.7000 N   0  0  0  0  0  0  0  0  0  0  0  0
    7.8991   49.6597    2.0512 C   0  0  2  0  0  0  0  0  0  0  0  0
    8.8614   48.7900    2.7393 C   0  0  0  0  0  0  0  0  0  0  0  0
   10.0201   49.2055    3.0919 O   0  0  0  0  0  0  0  0  0  0  0  0
    8.0442   49.6912    0.5434 C   0  0  0  0  0  0  0  0  0  0  0  0
    8.2386   48.3581   -0.0888 C   0  0  1  0  0  0  0  0  0  0  0  0
    6.8965   47.6197    0.0227 C   0  0  0  0  0  0  0  0  0  0  0  0
    8.4778   48.5462   -1.6088 C   0  0  0  0  0  0  0  0  0  0  0  0
    8.5810   47.4485    3.0595 N   0  0  0  0  0  0  0  0  0  0  0  0
    9.5194   46.5898    3.7479 C   0  0  2  0  0  0  0  0  0  0  0  0
   10.5847   46.2396    2.8061 C   0  0  0  0  0  0  0  0  0  0  0  0
   10.3719   46.3955    1.5556 O   0  0  0  0  0  0  0  0  0  0  0  0
    8.8358   45.2994    4.1780 C   0  0  0  0  0  0  0  0  0  0  0  0
    8.5380   44.4474    3.0074 C   0  0  0  0  0  0  0  0  0  0  0  0
    8.8498   44.8298    1.7281 O   0  0  0  0  0  0  0  0  0  0  0  0
    7.9796   43.3352    3.1960 O   0  0  0  0  0  0  0  0  0  0  0  0
   11.8338   45.7381    3.2000 N   0  0  0  0  0  0  0  0  0  0  0  0
   13.0338   46.6057    3.1056 C   0  0  2  0  0  0  0  0  0  0  0  0
   13.6630   46.7329    4.4336 C   0  0  0  0  0  0  0  0  0  0  0  0
   14.9104   46.9176    4.4838 O   0  0  0  0  0  0  0  0  0  0  0  0
   12.5138   47.9002    2.5398 C   0  0  0  0  0  0  0  0  0  0  0  0
   12.3024   47.8887    1.1907 O   0  0  0  0  0  0  0  0  0  0  0  0
   12.9300   46.6674    5.6491 N   0  0  0  0  0  0  0  0  0  0  0  0
   13.5866   46.6671    6.9074 C   0  0  1  0  0  0  0  0  0  0  0  0
   12.6707   47.2839    7.9973 C   0  0  0  0  0  0  0  0  0  0  0  0
   11.5667   46.5164    8.2451 O   0  0  0  0  0  0  0  0  0  0  0  0
   14.0937   45.3793    7.3974 C   0  0  0  0  0  0  0  0  0  0  0  0
   13.3771   44.3709    7.0461 O   0  0  0  0  0  0  0  0  0  0  0  0
   10.5949   47.3601    9.3741 P   0  0  1  0  0  5  0  0  0  0  0  0
    9.2106   46.7662    9.3122 O   0  0  0  0  0  0  0  0  0  0  0  0
   11.2757   47.1063   10.9226 O   0  0  0  0  0  0  0  0  0  0  0  0
   10.6179   49.0060    9.0690 O   0  0  0  0  0  0  0  0  0  0  0  0
   15.2222   45.1690    8.1612 N   0  0  0  0  0  0  0  0  0  0  0  0
   15.6173   44.2356    9.1771 C   0  0  2  0  0  0  0  0  0  0  0  0
   14.9258   42.9929    9.3032 C   0  0  0  0  0  0  0  0  0  0  0  0
   13.6788   42.8644    9.5956 O   0  0  0  0  0  0  0  0  0  0  0  0
   15.7032   45.1686   10.3560 C   0  0  0  0  0  0  0  0  0  0  0  0
   16.5290   46.2990    9.7180 C   0  0  0  0  0  0  0  0  0  0  0  0
   16.3723   46.1140    8.1903 C   0  0  0  0  0  0  0  0  0  0  0  0
   15.6311   41.7489    9.0854 N   0  0  0  0  0  0  0  0  0  0  0  0
   15.1405   40.4211    9.3229 C   0  0  2  0  0  0  0  0  0  0  0  0
   15.8875   39.7763   10.4371 C   0  0  0  0  0  0  0  0  0  0  0  0
   16.4252   38.6370   10.3522 O   0  0  0  0  0  0  0  0  0  0  0  0
   15.5659   39.7559    7.9963 C   0  0  0  0  0  0  0  0  0  0  0  0
   17.0312   40.1986    7.9811 C   0  0  0  0  0  0  0  0  0  0  0  0
   16.9669   41.6025    8.5783 C   0  0  0  0  0  0  0  0  0  0  0  0
   16.0279   40.4479   11.6849 N   0  0  0  0  0  0  0  0  0  0  0  0
   16.9742   40.1297   12.7216 C   0  0  2  0  0  0  0  0  0  0  0  0
   16.8702   41.1186   13.8491 C   0  0  0  0  0  0  0  0  0  0  0  0
   17.7139   41.2602   14.7512 O   0  0  0  0  0  0  0  0  0  0  0  0
   18.3716   39.9901   12.1910 C   0  0  0  0  0  0  0  0  0  0  0  0
   18.5820   38.6691   11.5721 C   0  0  0  0  0  0  0  0  0  0  0  0
   18.5474   37.5724   12.1693 O   0  0  0  0  0  0  0  0  0  0  0  0
   18.8511   38.6372   10.1615 N   0  0  0  0  0  0  0  0  0  0  0  0
   15.7251   41.9821   13.9287 N   0  0  0  0  0  0  0  0  0  0  0  0
   14.9566   42.2786   15.0778 C   0  0  2  0  0  0  0  0  0  0  0  0
   15.7503   42.1095   16.3515 C   0  0  0  0  0  0  0  0  0  0  0  0
   15.3653   42.6641   17.4200 O   0  0  0  0  0  0  0  0  0  0  0  0
   13.6030   41.6758   15.1298 C   0  0  2  0  0  0  0  0  0  0  0  0
   13.6559   40.3639   15.6760 O   0  0  0  0  0  0  0  0  0  0  0  0
   12.9274   41.5057   13.7870 C   0  0  0  0  0  0  0  0  0  0  0  0
   16.9461   41.3425   16.4163 N   0  0  0  0  0  0  0  0  0  0  0  0
   17.6611   41.3124   17.6732 C   0  0  2  0  0  0  0  0  0  0  0  0
   18.2841   42.6933   17.8018 C   0  0  0  0  0  0  0  0  0  0  0  0
   18.2893   43.6070   16.7747 O   0  0  0  0  0  0  0  0  0  0  0  0
   18.7259   40.2884   17.7842 C   0  0  0  0  0  0  0  0  0  0  0  0
   18.1417   39.0282   17.7405 O   0  0  0  0  0  0  0  0  0  0  0  0
   18.8326   43.0446   18.9025 O   0  0  0  0  0  0  0  0  0  0  0  0
  2  1  1  1
  2  3  1  0
  2  5  1  0
  3  4  2  0
  3  7  1  0
  5  6  1  0
  7  8  1  0
  8  9  1  0
  8 11  1  6
  9 10  2  0
  9 15  1  0
 11 12  1  0
 12 13  1  6
 12 14  1  0
 15 16  1  0
 16 17  1  0
 16 19  1  6
 17 18  2  0
 17 23  1  0
 19 20  1  0
 20 21  1  0
 20 22  2  0
 23 24  1  0
 24 25  1  0
 24 27  1  1
 25 26  2  0
 25 29  1  0
 27 28  1  0
 29 30  1  0
 30 31  1  1
 30 33  1  0
 31 32  1  0
 32 35  1  0
 33 34  2  0
 33 39  1  0
 35 36  2  0
 35 37  1  1
 35 38  1  0
 39 40  1  0
 39 45  1  0
 40 41  1  1
 40 43  1  0
 41 42  2  0
 41 46  1  0
 43 44  1  0
 44 45  1  0
 46 47  1  0
 46 52  1  0
 47 48  1  1
 47 50  1  0
 48 49  2  0
 48 53  1  0
 50 51  1  0
 51 52  1  0
 53 54  1  0
 54 55  1  0
 54 57  1  6
 55 56  2  0
 55 61  1  0
 57 58  1  0
 58 59  2  0
 58 60  1  0
 62 61  1  6
 62 63  1  0
 62 65  1  0
 63 64  2  0
 63 68  1  0
 65 66  1  0
 65 67  1  6
 68 69  1  0
 69 70  1  0
 69 72  1  6
 70 71  1  0
 70 74  2  0
 72 73  1  0
M  CHG  1   1   1
M  END
$$$$
