
     RDKit          3D

 74 75  0  0  0  0  0  0  0  0999 V2000
   19.6771   39.6953   17.0010 N   0  0  0  0  0  4  0  0  0  0  0  0
   18.3338   39.7289   17.5592 C   0  0  2  0  0  0  0  0  0  0  0  0
   17.4086   39.0555   16.6033 C   0  0  0  0  0  0  0  0  0  0  0  0
   17.2756   37.8336   16.6999 O   0  0  0  0  0  0  0  0  0  0  0  0
   17.9658   41.2056   17.7037 C   0  0  0  0  0  0  0  0  0  0  0  0
   17.4912   41.4722   18.9687 O   0  0  0  0  0  0  0  0  0  0  0  0
   16.7209   39.8183   15.6304 N   0  0  0  0  0  0  0  0  0  0  0  0
   15.6005   39.4457   14.8556 C   0  0  2  0  0  0  0  0  0  0  0  0
   15.0701   40.5124   13.9973 C   0  0  0  0  0  0  0  0  0  0  0  0
   13.8979   40.9995   14.1662 O   0  0  0  0  0  0  0  0  0  0  0  0
   14.5434   38.5977   15.5330 C   0  0  0  0  0  0  0  0  0  0  0  0
   13.3687   38.2721   14.6793 C   0  0  1  0  0  0  0  0  0  0  0  0
   13.7401   37.0118   13.8840 C   0  0  0  0  0  0  0  0  0  0  0  0
   12.1832   37.8507   15.5849 C   0  0  0  0  0  0  0  0  0  0  0  0
   15.8066   41.0726   12.9369 N   0  0  0  0  0  0  0  0  0  0  0  0
   15.4279   42.3034   12.2782 C   0  0  2  0  0  0  0  0  0  0  0  0
   14.7917   41.9564   11.0057 C   0  0  0  0  0  0  0  0  0  0  0  0
   15.5359   41.6604   10.0098 O   0  0  0  0  0  0  0  0  0  0  0  0
   16.6633   43.1374   11.9687 C   0  0  0  0  0  0  0  0  0  0  0  0
   17.7133   42.3077   11.3410 C   0  0  0  0  0  0  0  0  0  0  0  0
   17.6738   41.9605   10.0151 O   0  0  0  0  0  0  0  0  0  0  0  0
   18.6731   41.9089   12.0510 O   0  0  0  0  0  0  0  0  0  0  0  0
   13.4024   41.9313   10.8151 N   0  0  0  0  0  0  0  0  0  0  0  0
   12.5359   42.8209   11.6272 C   0  0  2  0  0  0  0  0  0  0  0  0
   12.4827   44.1611   11.0134 C   0  0  0  0  0  0  0  0  0  0  0  0
   12.0203   45.1115   11.7030 O   0  0  0  0  0  0  0  0  0  0  0  0
   13.1545   42.7920   12.9993 C   0  0  0  0  0  0  0  0  0  0  0  0
   12.3935   43.3615   13.9799 O   0  0  0  0  0  0  0  0  0  0  0  0
   12.9355   44.4287    9.6934 N   0  0  0  0  0  0  0  0  0  0  0  0
   12.7097   45.6871    9.0770 C   0  0  1  0  0  0  0  0  0  0  0  0
   14.0396   46.2693    8.5296 C   0  0  0  0  0  0  0  0  0  0  0  0
   15.0348   46.2650    9.4670 O   0  0  0  0  0  0  0  0  0  0  0  0
   11.7030   45.7383    8.0094 C   0  0  0  0  0  0  0  0  0  0  0  0
   10.7783   44.8520    8.1241 O   0  0  0  0  0  0  0  0  0  0  0  0
   16.4384   46.9134    8.7319 P   0  0  1  0  0  5  0  0  0  0  0  0
   16.2059   46.9222    7.2424 O   0  0  0  0  0  0  0  0  0  0  0  0
   16.6229   48.5132    9.3084 O   0  0  0  0  0  0  0  0  0  0  0  0
   17.8002   46.0485    9.1792 O   0  0  0  0  0  0  0  0  0  0  0  0
   11.6639   46.6177    6.9482 N   0  0  0  0  0  0  0  0  0  0  0  0
   10.8844   46.7505    5.7507 C   0  0  2  0  0  0  0  0  0  0  0  0
    9.6177   46.0988    5.6555 C   0  0  0  0  0  0  0  0  0  0  0  0
    9.4104   44.8461    5.8671 O   0  0  0  0  0  0  0  0  0  0  0  0
   11.9503   46.4705    4.7244 C   0  0  0  0  0  0  0  0  0  0  0  0
   13.0568   47.3974    5.2568 C   0  0  0  0  0  0  0  0  0  0  0  0
   12.6867   47.6779    6.7324 C   0  0  0  0  0  0  0  0  0  0  0  0
    8.4382   46.8606    5.3078 N   0  0  0  0  0  0  0  0  0  0  0  0
    7.1585   46.3447    4.9119 C   0  0  2  0  0  0  0  0  0  0  0  0
    6.8735   46.6805    3.4902 C   0  0  0  0  0  0  0  0  0  0  0  0
    5.7086   46.7597    3.0096 O   0  0  0  0  0  0  0  0  0  0  0  0
    6.2504   47.2094    5.8126 C   0  0  0  0  0  0  0  0  0  0  0  0
    6.8285   48.5833    5.4639 C   0  0  0  0  0  0  0  0  0  0  0  0
    8.3182   48.2918    5.2990 C   0  0  0  0  0  0  0  0  0  0  0  0
    7.9457   46.9348    2.5883 N   0  0  0  0  0  0  0  0  0  0  0  0
    7.8250   47.2531    1.1898 C   0  0  2  0  0  0  0  0  0  0  0  0
    9.1766   47.5426    0.5985 C   0  0  0  0  0  0  0  0  0  0  0  0
    9.3733   47.9611   -0.5554 O   0  0  0  0  0  0  0  0  0  0  0  0
    6.8294   48.3487    0.9412 C   0  0  0  0  0  0  0  0  0  0  0  0
    5.4588   47.8164    0.8393 C   0  0  0  0  0  0  0  0  0  0  0  0
    4.4114   48.4535    1.0798 O   0  0  0  0  0  0  0  0  0  0  0  0
    5.3118   46.4476    0.4293 N   0  0  0  0  0  0  0  0  0  0  0  0
   10.3552   47.3308    1.3918 N   0  0  0  0  0  0  0  0  0  0  0  0
   11.6979   47.3498    0.9493 C   0  0  2  0  0  0  0  0  0  0  0  0
   11.8025   47.2479   -0.5539 C   0  0  0  0  0  0  0  0  0  0  0  0
   11.0822   46.4255   -1.1879 O   0  0  0  0  0  0  0  0  0  0  0  0
   12.6366   46.4628    1.6776 C   0  0  2  0  0  0  0  0  0  0  0  0
   12.6470   46.7708    3.0659 O   0  0  0  0  0  0  0  0  0  0  0  0
   14.0831   46.5735    1.2488 C   0  0  0  0  0  0  0  0  0  0  0  0
   12.6975   48.0462   -1.3183 N   0  0  0  0  0  0  0  0  0  0  0  0
   12.6162   47.9590   -2.7597 C   0  0  2  0  0  0  0  0  0  0  0  0
   14.0583   48.0208   -3.2371 C   0  0  0  0  0  0  0  0  0  0  0  0
   15.1128   48.2729   -2.3921 O   0  0  0  0  0  0  0  0  0  0  0  0
   11.8387   49.0291   -3.4269 C   0  0  0  0  0  0  0  0  0  0  0  0
   11.9514   48.8729   -4.8033 O   0  0  0  0  0  0  0  0  0  0  0  0
   14.3287   47.8332   -4.4732 O   0  0  0  0  0  0  0  0  0  0  0  0
  2  1  1  6
  2  3  1  0
  2  5  1  0
  3  4  2  0
  3  7  1  0
  5  6  1  0
  7  8  1  0
  8  9  1  0
  8 11  1  1
  9 10  2  0
  9 15  1  0
 11 12  1  0
 12 13  1  6
 12 14  1  0
 15 16  1  0
 16 17  1  0
 16 19  1  6
 17 18  2  0
 17 23  1  0
 19 20  1  0
 20 21  1  0
 20 22  2  0
 23 24  1  0
 24 25  1  0
 24 27  1  1
 25 26  2  0
 25 29  1  0
 27 28  1  0
 29 30  1  0
 30 31  1  6
 30 33  1  0
 31 32  1  0
 32 35  1  0
 33 34  2  0
 33 39  1  0
 35 36  2  0
 35 37  1  1
 35 38  1  0
 39 40  1  0
 39 45  1  0
 40 41  1  1
 40 43  1  0
 41 42  2  0
 41 46  1  0
 43 44  1  0
 44 45  1  0
 46 47  1  0
 46 52  1  0
 47 48  1  6
 47 50  1  0
 48 49  2  0
 48 53  1  0
 50 51  1  0
 51 52  1  0
 53 54  1  0
 54 55  1  0
 54 57  1  1
 55 56  2  0
 55 61  1  0
 57 58  1  0
 58 59  2  0
 58 60  1  0
 62 61  1  1
 62 63  1  0
 62 65  1  0
 63 64  2  0
 63 68  1  0
 65 66  1  0
 65 67  1  6
 68 69  1  0
 69 70  1  0
 69 72  1  6
 70 71  1  0
 70 74  2  0
 72 73  1  0
M  CHG  1   1   1
M  END
$$$$
