
     RDKit          3D

 74 75  0  0  0  0  0  0  0  0999 V2000
   11.0010   43.3570   13.9992 N   0  0  0  0  0  4  0  0  0  0  0  0
    9.9755   42.5788   14.6776 C   0  0  2  0  0  0  0  0  0  0  0  0
    9.0662   41.9978   13.6486 C   0  0  0  0  0  0  0  0  0  0  0  0
    9.3468   42.1887   12.4634 O   0  0  0  0  0  0  0  0  0  0  0  0
    9.2121   43.5588   15.5686 C   0  0  0  0  0  0  0  0  0  0  0  0
    8.6148   44.5449   14.8154 O   0  0  0  0  0  0  0  0  0  0  0  0
    7.9288   41.2577   14.0486 N   0  0  0  0  0  0  0  0  0  0  0  0
    6.9422   40.6586   13.2348 C   0  0  2  0  0  0  0  0  0  0  0  0
    6.4051   41.5319   12.1838 C   0  0  0  0  0  0  0  0  0  0  0  0
    6.0389   41.0764   11.0446 O   0  0  0  0  0  0  0  0  0  0  0  0
    5.9071   39.7952   13.9267 C   0  0  0  0  0  0  0  0  0  0  0  0
    5.3076   38.7377   13.0681 C   0  0  1  0  0  0  0  0  0  0  0  0
    3.8283   38.6342   13.4681 C   0  0  0  0  0  0  0  0  0  0  0  0
    5.3011   39.2216   11.5955 C   0  0  0  0  0  0  0  0  0  0  0  0
    6.2541   42.9210   12.3525 N   0  0  0  0  0  0  0  0  0  0  0  0
    5.7774   43.7950   11.3032 C   0  0  2  0  0  0  0  0  0  0  0  0
    6.9282   44.5251   10.7673 C   0  0  0  0  0  0  0  0  0  0  0  0
    6.8972   45.8027   10.7684 O   0  0  0  0  0  0  0  0  0  0  0  0
    4.8014   44.8163   11.8705 C   0  0  0  0  0  0  0  0  0  0  0  0
    4.1274   44.2861   13.0745 C   0  0  0  0  0  0  0  0  0  0  0  0
    4.3399   43.0096   13.5275 O   0  0  0  0  0  0  0  0  0  0  0  0
    3.3329   45.0348   13.7011 O   0  0  0  0  0  0  0  0  0  0  0  0
    8.0703   43.8985   10.2479 N   0  0  0  0  0  0  0  0  0  0  0  0
    9.1548   44.7235    9.6606 C   0  0  2  0  0  0  0  0  0  0  0  0
    9.1513   44.5802    8.1926 C   0  0  0  0  0  0  0  0  0  0  0  0
    8.5820   45.4762    7.5104 O   0  0  0  0  0  0  0  0  0  0  0  0
   10.4073   44.2227   10.3291 C   0  0  0  0  0  0  0  0  0  0  0  0
   11.3147   45.1945   10.6408 O   0  0  0  0  0  0  0  0  0  0  0  0
    9.7653   43.4908    7.5178 N   0  0  0  0  0  0  0  0  0  0  0  0
   11.1225   43.5482    7.1066 C   0  0  1  0  0  0  0  0  0  0  0  0
   11.5675   45.0213    6.9088 C   0  0  0  0  0  0  0  0  0  0  0  0
   11.1371   45.5401    5.7194 O   0  0  0  0  0  0  0  0  0  0  0  0
   12.1091   42.8727    7.9588 C   0  0  0  0  0  0  0  0  0  0  0  0
   12.6399   43.6374    8.8460 O   0  0  0  0  0  0  0  0  0  0  0  0
   12.4791   46.2935    4.9695 P   0  0  1  0  0  5  0  0  0  0  0  0
   13.6556   45.3605    5.1051 O   0  0  0  0  0  0  0  0  0  0  0  0
   12.0860   46.5092    3.3190 O   0  0  0  0  0  0  0  0  0  0  0  0
   12.7606   47.8058    5.6301 O   0  0  0  0  0  0  0  0  0  0  0  0
   12.4923   41.5497    7.8950 N   0  0  0  0  0  0  0  0  0  0  0  0
   13.0530   40.5962    8.8090 C   0  0  2  0  0  0  0  0  0  0  0  0
   12.9445   40.8163   10.2155 C   0  0  0  0  0  0  0  0  0  0  0  0
   12.1012   41.6088   10.7792 O   0  0  0  0  0  0  0  0  0  0  0  0
   14.4097   40.4138    8.1814 C   0  0  0  0  0  0  0  0  0  0  0  0
   13.9802   40.2036    6.7191 C   0  0  0  0  0  0  0  0  0  0  0  0
   12.5478   40.7796    6.6220 C   0  0  0  0  0  0  0  0  0  0  0  0
   13.8194   40.1110   11.1263 N   0  0  0  0  0  0  0  0  0  0  0  0
   13.9055   40.2774   12.5493 C   0  0  2  0  0  0  0  0  0  0  0  0
   15.2199   40.8615   12.9317 C   0  0  0  0  0  0  0  0  0  0  0  0
   16.1669   40.1895   13.4276 O   0  0  0  0  0  0  0  0  0  0  0  0
   13.8840   38.7940   12.9767 C   0  0  0  0  0  0  0  0  0  0  0  0
   14.9865   38.2758   12.0498 C   0  0  0  0  0  0  0  0  0  0  0  0
   14.7732   39.0948   10.7789 C   0  0  0  0  0  0  0  0  0  0  0  0
   15.4650   42.2516   12.7434 N   0  0  0  0  0  0  0  0  0  0  0  0
   16.4586   43.0409   13.4225 C   0  0  2  0  0  0  0  0  0  0  0  0
   17.6923   43.1757   12.5740 C   0  0  0  0  0  0  0  0  0  0  0  0
   18.3190   44.2339   12.3931 O   0  0  0  0  0  0  0  0  0  0  0  0
   16.7490   42.5235   14.8015 C   0  0  0  0  0  0  0  0  0  0  0  0
   17.9546   43.1534   15.3689 C   0  0  0  0  0  0  0  0  0  0  0  0
   18.3997   42.9652   16.5209 O   0  0  0  0  0  0  0  0  0  0  0  0
   18.6815   44.0629   14.5278 N   0  0  0  0  0  0  0  0  0  0  0  0
   18.2181   42.0198   11.9025 N   0  0  0  0  0  0  0  0  0  0  0  0
   19.1997   41.9954   10.8852 C   0  0  2  0  0  0  0  0  0  0  0  0
   19.0746   43.1716    9.9464 C   0  0  0  0  0  0  0  0  0  0  0  0
   18.9749   42.9841    8.7005 O   0  0  0  0  0  0  0  0  0  0  0  0
   19.3928   40.6963   10.1972 C   0  0  2  0  0  0  0  0  0  0  0  0
   18.1428   40.1423    9.8059 O   0  0  0  0  0  0  0  0  0  0  0  0
   20.0442   39.6194   11.0366 C   0  0  0  0  0  0  0  0  0  0  0  0
   19.0682   44.5198   10.3993 N   0  0  0  0  0  0  0  0  0  0  0  0
   19.0941   45.5667    9.4018 C   0  0  2  0  0  0  0  0  0  0  0  0
   20.5129   45.5516    8.8558 C   0  0  0  0  0  0  0  0  0  0  0  0
   21.6187   45.4007    9.6585 O   0  0  0  0  0  0  0  0  0  0  0  0
   18.7774   46.9292    9.8896 C   0  0  0  0  0  0  0  0  0  0  0  0
   19.0047   47.8370    8.8622 O   0  0  0  0  0  0  0  0  0  0  0  0
   20.7133   45.6823    7.5993 O   0  0  0  0  0  0  0  0  0  0  0  0
  2  1  1  6
  2  3  1  0
  2  5  1  0
  3  4  2  0
  3  7  1  0
  5  6  1  0
  7  8  1  0
  8  9  1  0
  8 11  1  1
  9 10  2  0
  9 15  1  0
 11 12  1  0
 12 13  1  1
 12 14  1  0
 15 16  1  0
 16 17  1  0
 16 19  1  1
 17 18  2  0
 17 23  1  0
 19 20  1  0
 20 21  1  0
 20 22  2  0
 23 24  1  0
 24 25  1  0
 24 27  1  1
 25 26  2  0
 25 29  1  0
 27 28  1  0
 29 30  1  0
 30 31  1  1
 30 33  1  0
 31 32  1  0
 32 35  1  0
 33 34  2  0
 33 39  1  0
 35 36  2  0
 35 37  1  6
 35 38  1  0
 39 40  1  0
 39 45  1  0
 40 41  1  1
 40 43  1  0
 41 42  2  0
 41 46  1  0
 43 44  1  0
 44 45  1  0
 46 47  1  0
 46 52  1  0
 47 48  1  6
 47 50  1  0
 48 49  2  0
 48 53  1  0
 50 51  1  0
 51 52  1  0
 53 54  1  0
 54 55  1  0
 54 57  1  1
 55 56  2  0
 55 61  1  0
 57 58  1  0
 58 59  2  0
 58 60  1  0
 62 61  1  6
 62 63  1  0
 62 65  1  0
 63 64  2  0
 63 68  1  0
 65 66  1  0
 65 67  1  1
 68 69  1  0
 69 70  1  0
 69 72  1  1
 70 71  1  0
 70 74  2  0
 72 73  1  0
M  CHG  1   1   1
M  END
$$$$
