
     RDKit          3D

 74 75  0  0  0  0  0  0  0  0999 V2000
    7.5488   50.6405   10.1905 N   0  0  0  0  0  4  0  0  0  0  0  0
    7.1327   49.2914   10.5428 C   0  0  2  0  0  0  0  0  0  0  0  0
    7.4688   48.3828    9.4093 C   0  0  0  0  0  0  0  0  0  0  0  0
    8.2543   47.4586    9.6301 O   0  0  0  0  0  0  0  0  0  0  0  0
    5.6187   49.3486   10.7469 C   0  0  0  0  0  0  0  0  0  0  0  0
    5.2242   50.6053   11.1488 O   0  0  0  0  0  0  0  0  0  0  0  0
    6.8906   48.5985    8.1364 N   0  0  0  0  0  0  0  0  0  0  0  0
    6.5894   47.6464    7.1377 C   0  0  2  0  0  0  0  0  0  0  0  0
    5.9187   48.1962    5.9529 C   0  0  0  0  0  0  0  0  0  0  0  0
    5.6777   47.4826    4.9173 O   0  0  0  0  0  0  0  0  0  0  0  0
    6.0542   46.3064    7.5999 C   0  0  0  0  0  0  0  0  0  0  0  0
    5.7194   45.3601    6.5012 C   0  0  1  0  0  0  0  0  0  0  0  0
    4.2638   44.9245    6.7257 C   0  0  0  0  0  0  0  0  0  0  0  0
    5.7145   46.1266    5.1538 C   0  0  0  0  0  0  0  0  0  0  0  0
    5.4945   49.5357    5.8717 N   0  0  0  0  0  0  0  0  0  0  0  0
    6.3556   50.6095    5.4274 C   0  0  2  0  0  0  0  0  0  0  0  0
    7.0174   50.1759    4.1951 C   0  0  0  0  0  0  0  0  0  0  0  0
    6.4047   50.3302    3.0842 O   0  0  0  0  0  0  0  0  0  0  0  0
    7.4359   50.8825    6.4646 C   0  0  0  0  0  0  0  0  0  0  0  0
    8.2498   52.0546    6.0790 C   0  0  0  0  0  0  0  0  0  0  0  0
    7.6845   53.2186    5.6256 O   0  0  0  0  0  0  0  0  0  0  0  0
    9.5027   51.9768    6.1713 O   0  0  0  0  0  0  0  0  0  0  0  0
    8.2938   49.5956    4.1635 N   0  0  0  0  0  0  0  0  0  0  0  0
    8.9429   49.3250    2.8569 C   0  0  2  0  0  0  0  0  0  0  0  0
    8.9534   47.8733    2.5964 C   0  0  0  0  0  0  0  0  0  0  0  0
    8.8137   47.4834    1.4043 O   0  0  0  0  0  0  0  0  0  0  0  0
   10.3103   49.9413    2.9858 C   0  0  0  0  0  0  0  0  0  0  0  0
   10.4577   51.1401    2.3483 O   0  0  0  0  0  0  0  0  0  0  0  0
    9.1230   46.9024    3.6199 N   0  0  0  0  0  0  0  0  0  0  0  0
   10.3038   46.1196    3.7058 C   0  0  1  0  0  0  0  0  0  0  0  0
   11.5574   47.0002    3.4602 C   0  0  0  0  0  0  0  0  0  0  0  0
   12.2516   46.6187    2.3458 O   0  0  0  0  0  0  0  0  0  0  0  0
   10.5082   45.3498    4.9392 C   0  0  0  0  0  0  0  0  0  0  0  0
   11.1643   45.9843    5.8452 O   0  0  0  0  0  0  0  0  0  0  0  0
   13.7103   47.5142    2.3152 P   0  0  1  0  0  5  0  0  0  0  0  0
   13.3601   48.9371    1.9608 O   0  0  0  0  0  0  0  0  0  0  0  0
   14.3825   47.4473    3.8866 O   0  0  0  0  0  0  0  0  0  0  0  0
   14.8112   46.8258    1.2584 O   0  0  0  0  0  0  0  0  0  0  0  0
   10.0723   44.0675    5.1982 N   0  0  0  0  0  0  0  0  0  0  0  0
   10.1495   43.1592    6.3064 C   0  0  2  0  0  0  0  0  0  0  0  0
   10.4180   43.6618    7.6154 C   0  0  0  0  0  0  0  0  0  0  0  0
   10.5514   44.9055    7.9193 O   0  0  0  0  0  0  0  0  0  0  0  0
   11.0472   42.1084    5.7082 C   0  0  0  0  0  0  0  0  0  0  0  0
   10.3373   41.9156    4.3571 C   0  0  0  0  0  0  0  0  0  0  0  0
    9.4767   43.1853    4.1573 C   0  0  0  0  0  0  0  0  0  0  0  0
   10.5494   42.7461    8.7275 N   0  0  0  0  0  0  0  0  0  0  0  0
   11.1267   43.0203   10.0127 C   0  0  2  0  0  0  0  0  0  0  0  0
   12.3821   42.2435   10.2016 C   0  0  0  0  0  0  0  0  0  0  0  0
   12.5273   41.3513   11.0831 O   0  0  0  0  0  0  0  0  0  0  0  0
   10.0315   42.4110   10.9143 C   0  0  0  0  0  0  0  0  0  0  0  0
    9.9175   41.0425   10.2380 C   0  0  0  0  0  0  0  0  0  0  0  0
   10.1171   41.3769    8.7615 C   0  0  0  0  0  0  0  0  0  0  0  0
   13.5058   42.4883    9.3618 N   0  0  0  0  0  0  0  0  0  0  0  0
   14.7958   41.8576    9.4600 C   0  0  2  0  0  0  0  0  0  0  0  0
   15.7154   42.6745   10.3244 C   0  0  0  0  0  0  0  0  0  0  0  0
   16.5892   43.4499    9.8993 O   0  0  0  0  0  0  0  0  0  0  0  0
   15.3798   41.5474    8.1123 C   0  0  0  0  0  0  0  0  0  0  0  0
   15.4345   42.7491    7.2607 C   0  0  0  0  0  0  0  0  0  0  0  0
   14.5626   43.0964    6.4362 O   0  0  0  0  0  0  0  0  0  0  0  0
   16.5886   43.5947    7.3870 N   0  0  0  0  0  0  0  0  0  0  0  0
   15.6114   42.5797   11.7539 N   0  0  0  0  0  0  0  0  0  0  0  0
   16.3735   43.2833   12.7147 C   0  0  2  0  0  0  0  0  0  0  0  0
   17.7443   42.6791   12.9062 C   0  0  0  0  0  0  0  0  0  0  0  0
   17.9715   41.9135   13.8857 O   0  0  0  0  0  0  0  0  0  0  0  0
   15.6799   43.6116   13.9833 C   0  0  2  0  0  0  0  0  0  0  0  0
   14.5348   44.4184   13.7378 O   0  0  0  0  0  0  0  0  0  0  0  0
   16.5027   44.4045   14.9748 C   0  0  0  0  0  0  0  0  0  0  0  0
   18.8282   42.9360   12.0221 N   0  0  0  0  0  0  0  0  0  0  0  0
   19.9096   41.9763   11.9837 C   0  0  2  0  0  0  0  0  0  0  0  0
   21.0600   42.6541   12.7107 C   0  0  0  0  0  0  0  0  0  0  0  0
   21.0161   42.9645   14.0492 O   0  0  0  0  0  0  0  0  0  0  0  0
   20.3625   41.5698   10.6330 C   0  0  0  0  0  0  0  0  0  0  0  0
   21.4229   40.6812   10.7647 O   0  0  0  0  0  0  0  0  0  0  0  0
   22.1257   42.9586   12.0724 O   0  0  0  0  0  0  0  0  0  0  0  0
  2  1  1  6
  2  3  1  0
  2  5  1  0
  3  4  2  0
  3  7  1  0
  5  6  1  0
  7  8  1  0
  8  9  1  0
  8 11  1  1
  9 10  2  0
  9 15  1  0
 11 12  1  0
 12 13  1  1
 12 14  1  0
 15 16  1  0
 16 17  1  0
 16 19  1  1
 17 18  2  0
 17 23  1  0
 19 20  1  0
 20 21  1  0
 20 22  2  0
 23 24  1  0
 24 25  1  0
 24 27  1  1
 25 26  2  0
 25 29  1  0
 27 28  1  0
 29 30  1  0
 30 31  1  1
 30 33  1  0
 31 32  1  0
 32 35  1  0
 33 34  2  0
 33 39  1  0
 35 36  2  0
 35 37  1  1
 35 38  1  0
 39 40  1  0
 39 45  1  0
 40 41  1  1
 40 43  1  0
 41 42  2  0
 41 46  1  0
 43 44  1  0
 44 45  1  0
 46 47  1  0
 46 52  1  0
 47 48  1  6
 47 50  1  0
 48 49  2  0
 48 53  1  0
 50 51  1  0
 51 52  1  0
 53 54  1  0
 54 55  1  0
 54 57  1  6
 55 56  2  0
 55 61  1  0
 57 58  1  0
 58 59  2  0
 58 60  1  0
 62 61  1  1
 62 63  1  0
 62 65  1  0
 63 64  2  0
 63 68  1  0
 65 66  1  0
 65 67  1  1
 68 69  1  0
 69 70  1  0
 69 72  1  6
 70 71  1  0
 70 74  2  0
 72 73  1  0
M  CHG  1   1   1
M  END
$$$$
