
     RDKit          3D

 74 75  0  0  0  0  0  0  0  0999 V2000
   20.3529   39.6066   10.4699 N   0  0  0  0  0  4  0  0  0  0  0  0
   18.9134   39.4726   10.3054 C   0  0  2  0  0  0  0  0  0  0  0  0
   18.3204   39.1018   11.6223 C   0  0  0  0  0  0  0  0  0  0  0  0
   18.1901   37.9020   11.8739 O   0  0  0  0  0  0  0  0  0  0  0  0
   18.6999   38.3486    9.2914 C   0  0  0  0  0  0  0  0  0  0  0  0
   17.3637   38.2049    8.9912 O   0  0  0  0  0  0  0  0  0  0  0  0
   17.9308   40.1136   12.5311 N   0  0  0  0  0  0  0  0  0  0  0  0
   17.3600   39.9667   13.8145 C   0  0  2  0  0  0  0  0  0  0  0  0
   16.9309   41.2243   14.4391 C   0  0  0  0  0  0  0  0  0  0  0  0
   16.3272   41.2498   15.5681 O   0  0  0  0  0  0  0  0  0  0  0  0
   18.0284   38.9895   14.7599 C   0  0  0  0  0  0  0  0  0  0  0  0
   18.3624   37.6714   14.1551 C   0  0  1  0  0  0  0  0  0  0  0  0
   19.5344   37.9146   13.1927 C   0  0  0  0  0  0  0  0  0  0  0  0
   18.9232   36.7345   15.2554 C   0  0  0  0  0  0  0  0  0  0  0  0
   17.1518   42.4819   13.8472 N   0  0  0  0  0  0  0  0  0  0  0  0
   16.6981   43.7217   14.4380 C   0  0  2  0  0  0  0  0  0  0  0  0
   15.5449   44.1925   13.6679 C   0  0  0  0  0  0  0  0  0  0  0  0
   14.7174   44.9883   14.2294 O   0  0  0  0  0  0  0  0  0  0  0  0
   17.7866   44.7814   14.3411 C   0  0  0  0  0  0  0  0  0  0  0  0
   19.0230   44.3271   15.0118 C   0  0  0  0  0  0  0  0  0  0  0  0
   20.0477   43.7280   14.3256 O   0  0  0  0  0  0  0  0  0  0  0  0
   19.1341   44.4978   16.2539 O   0  0  0  0  0  0  0  0  0  0  0  0
   15.2937   43.8167   12.3403 N   0  0  0  0  0  0  0  0  0  0  0  0
   14.4942   44.7096   11.4655 C   0  0  2  0  0  0  0  0  0  0  0  0
   13.9954   43.9522   10.3023 C   0  0  0  0  0  0  0  0  0  0  0  0
   14.3753   42.7565   10.1657 O   0  0  0  0  0  0  0  0  0  0  0  0
   15.4366   45.8307   11.1170 C   0  0  0  0  0  0  0  0  0  0  0  0
   14.9975   46.6559   10.1214 O   0  0  0  0  0  0  0  0  0  0  0  0
   13.1046   44.5025    9.3417 N   0  0  0  0  0  0  0  0  0  0  0  0
   11.9621   43.7860    8.8995 C   0  0  1  0  0  0  0  0  0  0  0  0
   10.6921   44.2779    9.6428 C   0  0  0  0  0  0  0  0  0  0  0  0
   10.5174   43.6517   10.8456 O   0  0  0  0  0  0  0  0  0  0  0  0
   11.6886   43.7868    7.4569 C   0  0  0  0  0  0  0  0  0  0  0  0
   10.4470   43.6257    7.1632 O   0  0  0  0  0  0  0  0  0  0  0  0
    9.1438   44.3471   11.5943 P   0  0  1  0  0  5  0  0  0  0  0  0
    8.6614   43.3778   12.6435 O   0  0  0  0  0  0  0  0  0  0  0  0
    9.6480   45.8071   12.3289 O   0  0  0  0  0  0  0  0  0  0  0  0
    7.9720   44.7237   10.4595 O   0  0  0  0  0  0  0  0  0  0  0  0
   12.6057   43.9436    6.4393 N   0  0  0  0  0  0  0  0  0  0  0  0
   12.6801   44.7153    5.2317 C   0  0  2  0  0  0  0  0  0  0  0  0
   11.8488   45.8655    5.0751 C   0  0  0  0  0  0  0  0  0  0  0  0
   10.5621   45.8610    5.1111 O   0  0  0  0  0  0  0  0  0  0  0  0
   12.6194   43.6030    4.2184 C   0  0  0  0  0  0  0  0  0  0  0  0
   13.6751   42.6604    4.8212 C   0  0  0  0  0  0  0  0  0  0  0  0
   13.8190   43.0922    6.2996 C   0  0  0  0  0  0  0  0  0  0  0  0
   12.4473   47.1660    4.8679 N   0  0  0  0  0  0  0  0  0  0  0  0
   12.0085   48.4191    5.4132 C   0  0  2  0  0  0  0  0  0  0  0  0
   11.5057   49.3140    4.3354 C   0  0  0  0  0  0  0  0  0  0  0  0
   11.1597   50.5133    4.5260 O   0  0  0  0  0  0  0  0  0  0  0  0
   13.3643   48.9639    5.9116 C   0  0  0  0  0  0  0  0  0  0  0  0
   14.1750   48.7601    4.6292 C   0  0  0  0  0  0  0  0  0  0  0  0
   13.6100   47.4541    4.0754 C   0  0  0  0  0  0  0  0  0  0  0  0
   11.3941   48.8306    3.0006 N   0  0  0  0  0  0  0  0  0  0  0  0
   10.8165   49.5339    1.8856 C   0  0  2  0  0  0  0  0  0  0  0  0
    9.6359   48.7780    1.3425 C   0  0  0  0  0  0  0  0  0  0  0  0
    9.5758   48.2717    0.2087 O   0  0  0  0  0  0  0  0  0  0  0  0
   11.8354   49.8643    0.8338 C   0  0  0  0  0  0  0  0  0  0  0  0
   11.2550   50.6992   -0.2332 C   0  0  0  0  0  0  0  0  0  0  0  0
   11.3733   50.4970   -1.4603 O   0  0  0  0  0  0  0  0  0  0  0  0
   10.4879   51.8448    0.1697 N   0  0  0  0  0  0  0  0  0  0  0  0
    8.4683   48.6073    2.1617 N   0  0  0  0  0  0  0  0  0  0  0  0
    7.2165   48.0821    1.7665 C   0  0  2  0  0  0  0  0  0  0  0  0
    6.5624   48.9190    0.6929 C   0  0  0  0  0  0  0  0  0  0  0  0
    5.4798   48.5407    0.1619 O   0  0  0  0  0  0  0  0  0  0  0  0
    6.2993   47.6891    2.8631 C   0  0  2  0  0  0  0  0  0  0  0  0
    5.9351   48.8195    3.6454 O   0  0  0  0  0  0  0  0  0  0  0  0
    6.8760   46.7045    3.8563 C   0  0  0  0  0  0  0  0  0  0  0  0
    7.1166   50.1436    0.2281 N   0  0  0  0  0  0  0  0  0  0  0  0
    6.2195   51.1037   -0.3762 C   0  0  2  0  0  0  0  0  0  0  0  0
    6.7413   52.4605    0.0692 C   0  0  0  0  0  0  0  0  0  0  0  0
    7.6434   52.6117    1.0955 O   0  0  0  0  0  0  0  0  0  0  0  0
    4.7937   50.9834    0.0075 C   0  0  0  0  0  0  0  0  0  0  0  0
    4.0785   52.0092   -0.5987 O   0  0  0  0  0  0  0  0  0  0  0  0
    6.3399   53.5222   -0.5205 O   0  0  0  0  0  0  0  0  0  0  0  0
  2  1  1  1
  2  3  1  0
  2  5  1  0
  3  4  2  0
  3  7  1  0
  5  6  1  0
  7  8  1  0
  8  9  1  0
  8 11  1  1
  9 10  2  0
  9 15  1  0
 11 12  1  0
 12 13  1  6
 12 14  1  0
 15 16  1  0
 16 17  1  0
 16 19  1  6
 17 18  2  0
 17 23  1  0
 19 20  1  0
 20 21  1  0
 20 22  2  0
 23 24  1  0
 24 25  1  0
 24 27  1  6
 25 26  2  0
 25 29  1  0
 27 28  1  0
 29 30  1  0
 30 31  1  1
 30 33  1  0
 31 32  1  0
 32 35  1  0
 33 34  2  0
 33 39  1  0
 35 36  2  0
 35 37  1  1
 35 38  1  0
 39 40  1  0
 39 45  1  0
 40 41  1  6
 40 43  1  0
 41 42  2  0
 41 46  1  0
 43 44  1  0
 44 45  1  0
 46 47  1  0
 46 52  1  0
 47 48  1  6
 47 50  1  0
 48 49  2  0
 48 53  1  0
 50 51  1  0
 51 52  1  0
 53 54  1  0
 54 55  1  0
 54 57  1  6
 55 56  2  0
 55 61  1  0
 57 58  1  0
 58 59  2  0
 58 60  1  0
 62 61  1  1
 62 63  1  0
 62 65  1  0
 63 64  2  0
 63 68  1  0
 65 66  1  0
 65 67  1  1
 68 69  1  0
 69 70  1  0
 69 72  1  1
 70 71  1  0
 70 74  2  0
 72 73  1  0
M  CHG  1   1   1
M  END
$$$$
