
     RDKit          3D

 74 75  0  0  0  0  0  0  0  0999 V2000
   18.2222   39.5169    9.7654 N   0  0  0  0  0  4  0  0  0  0  0  0
   16.8935   38.9283    9.6915 C   0  0  2  0  0  0  0  0  0  0  0  0
   16.1572   39.2668   10.9431 C   0  0  0  0  0  0  0  0  0  0  0  0
   16.8239   39.5162   11.9497 O   0  0  0  0  0  0  0  0  0  0  0  0
   17.0987   37.4169    9.5881 C   0  0  0  0  0  0  0  0  0  0  0  0
   17.9683   36.9715   10.5585 O   0  0  0  0  0  0  0  0  0  0  0  0
   14.7428   39.2931   10.9449 N   0  0  0  0  0  0  0  0  0  0  0  0
   13.8719   39.5329   12.0305 C   0  0  2  0  0  0  0  0  0  0  0  0
   14.2861   40.6297   12.9145 C   0  0  0  0  0  0  0  0  0  0  0  0
   13.5008   41.1232   13.7972 O   0  0  0  0  0  0  0  0  0  0  0  0
   13.3135   38.3213   12.7487 C   0  0  0  0  0  0  0  0  0  0  0  0
   12.7090   37.2953   11.8561 C   0  0  1  0  0  0  0  0  0  0  0  0
   11.8996   36.3514   12.7576 C   0  0  0  0  0  0  0  0  0  0  0  0
   11.6657   37.9755   10.9333 C   0  0  0  0  0  0  0  0  0  0  0  0
   15.5664   41.2114   12.8564 N   0  0  0  0  0  0  0  0  0  0  0  0
   15.9555   42.3427   13.6693 C   0  0  2  0  0  0  0  0  0  0  0  0
   15.8519   43.5478   12.8437 C   0  0  0  0  0  0  0  0  0  0  0  0
   14.9260   44.3897   13.1030 O   0  0  0  0  0  0  0  0  0  0  0  0
   17.4065   42.2025   14.1079 C   0  0  0  0  0  0  0  0  0  0  0  0
   18.1472   41.3074   13.1941 C   0  0  0  0  0  0  0  0  0  0  0  0
   17.5530   40.7201   12.1070 O   0  0  0  0  0  0  0  0  0  0  0  0
   19.3633   41.0796   13.4258 O   0  0  0  0  0  0  0  0  0  0  0  0
   16.7156   43.8327   11.7762 N   0  0  0  0  0  0  0  0  0  0  0  0
   16.3904   44.9437   10.8479 C   0  0  2  0  0  0  0  0  0  0  0  0
   14.9979   44.8114   10.3802 C   0  0  0  0  0  0  0  0  0  0  0  0
   14.6999   43.8037    9.6814 O   0  0  0  0  0  0  0  0  0  0  0  0
   17.4232   44.8328    9.7582 C   0  0  0  0  0  0  0  0  0  0  0  0
   17.2466   45.6967    8.7153 O   0  0  0  0  0  0  0  0  0  0  0  0
   13.9826   45.7566   10.6882 N   0  0  0  0  0  0  0  0  0  0  0  0
   12.8083   45.8618    9.8981 C   0  0  1  0  0  0  0  0  0  0  0  0
   12.1844   47.2753   10.0392 C   0  0  0  0  0  0  0  0  0  0  0  0
   11.7640   47.5342   11.3141 O   0  0  0  0  0  0  0  0  0  0  0  0
   12.9324   45.5465    8.4695 C   0  0  0  0  0  0  0  0  0  0  0  0
   13.8515   46.2151    7.8676 O   0  0  0  0  0  0  0  0  0  0  0  0
   10.0653   47.3250   11.3495 P   0  0  1  0  0  5  0  0  0  0  0  0
    9.4792   48.5066   12.0799 O   0  0  0  0  0  0  0  0  0  0  0  0
    9.5202   47.3056    9.7284 O   0  0  0  0  0  0  0  0  0  0  0  0
    9.6591   45.8565   12.0432 O   0  0  0  0  0  0  0  0  0  0  0  0
   12.1865   44.6341    7.7539 N   0  0  0  0  0  0  0  0  0  0  0  0
   11.6388   44.5665    6.4292 C   0  0  2  0  0  0  0  0  0  0  0  0
   12.1711   45.4012    5.4005 C   0  0  0  0  0  0  0  0  0  0  0  0
   12.9063   46.4399    5.5944 O   0  0  0  0  0  0  0  0  0  0  0  0
   10.1711   44.6286    6.7604 C   0  0  0  0  0  0  0  0  0  0  0  0
   10.1230   43.5680    7.8738 C   0  0  0  0  0  0  0  0  0  0  0  0
   11.5819   43.4192    8.3663 C   0  0  0  0  0  0  0  0  0  0  0  0
   11.9034   45.0958    4.0121 N   0  0  0  0  0  0  0  0  0  0  0  0
   12.2449   45.8922    2.8678 C   0  0  2  0  0  0  0  0  0  0  0  0
   11.0184   46.4154    2.2067 C   0  0  0  0  0  0  0  0  0  0  0  0
   10.9738   46.7730    0.9966 O   0  0  0  0  0  0  0  0  0  0  0  0
   12.8557   44.7936    1.9714 C   0  0  0  0  0  0  0  0  0  0  0  0
   11.7222   43.7691    2.0653 C   0  0  0  0  0  0  0  0  0  0  0  0
   11.2452   43.9231    3.5076 C   0  0  0  0  0  0  0  0  0  0  0  0
    9.8059   46.5345    2.9439 N   0  0  0  0  0  0  0  0  0  0  0  0
    8.5835   47.1370    2.4812 C   0  0  2  0  0  0  0  0  0  0  0  0
    8.5215   48.5817    2.8924 C   0  0  0  0  0  0  0  0  0  0  0  0
    7.8210   49.0287    3.8171 O   0  0  0  0  0  0  0  0  0  0  0  0
    7.3719   46.3557    2.8999 C   0  0  0  0  0  0  0  0  0  0  0  0
    7.3462   45.0243    2.2681 C   0  0  0  0  0  0  0  0  0  0  0  0
    6.6046   44.0757    2.6010 O   0  0  0  0  0  0  0  0  0  0  0  0
    8.2511   44.7949    1.1765 N   0  0  0  0  0  0  0  0  0  0  0  0
    9.3136   49.5515    2.1886 N   0  0  0  0  0  0  0  0  0  0  0  0
    9.3901   50.9400    2.4439 C   0  0  2  0  0  0  0  0  0  0  0  0
    8.5252   51.7401    1.4992 C   0  0  0  0  0  0  0  0  0  0  0  0
    8.7838   51.7610    0.2623 O   0  0  0  0  0  0  0  0  0  0  0  0
   10.7529   51.4950    2.6255 C   0  0  2  0  0  0  0  0  0  0  0  0
   11.5051   51.3885    1.4232 O   0  0  0  0  0  0  0  0  0  0  0  0
   11.5948   50.7935    3.6685 C   0  0  0  0  0  0  0  0  0  0  0  0
    7.4052   52.4989    1.9380 N   0  0  0  0  0  0  0  0  0  0  0  0
    6.6504   53.2258    0.9411 C   0  0  2  0  0  0  0  0  0  0  0  0
    7.6521   54.1808    0.3117 C   0  0  0  0  0  0  0  0  0  0  0  0
    8.4791   54.9894    1.0548 O   0  0  0  0  0  0  0  0  0  0  0  0
    5.4941   54.0012    1.4474 C   0  0  0  0  0  0  0  0  0  0  0  0
    4.9554   54.7381    0.3995 O   0  0  0  0  0  0  0  0  0  0  0  0
    7.7495   54.2536   -0.9615 O   0  0  0  0  0  0  0  0  0  0  0  0
  2  1  1  1
  2  3  1  0
  2  5  1  0
  3  4  2  0
  3  7  1  0
  5  6  1  0
  7  8  1  0
  8  9  1  0
  8 11  1  1
  9 10  2  0
  9 15  1  0
 11 12  1  0
 12 13  1  1
 12 14  1  0
 15 16  1  0
 16 17  1  0
 16 19  1  6
 17 18  2  0
 17 23  1  0
 19 20  1  0
 20 21  1  0
 20 22  2  0
 23 24  1  0
 24 25  1  0
 24 27  1  6
 25 26  2  0
 25 29  1  0
 27 28  1  0
 29 30  1  0
 30 31  1  6
 30 33  1  0
 31 32  1  0
 32 35  1  0
 33 34  2  0
 33 39  1  0
 35 36  2  0
 35 37  1  6
 35 38  1  0
 39 40  1  0
 39 45  1  0
 40 41  1  6
 40 43  1  0
 41 42  2  0
 41 46  1  0
 43 44  1  0
 44 45  1  0
 46 47  1  0
 46 52  1  0
 47 48  1  6
 47 50  1  0
 48 49  2  0
 48 53  1  0
 50 51  1  0
 51 52  1  0
 53 54  1  0
 54 55  1  0
 54 57  1  1
 55 56  2  0
 55 61  1  0
 57 58  1  0
 58 59  2  0
 58 60  1  0
 62 61  1  6
 62 63  1  0
 62 65  1  0
 63 64  2  0
 63 68  1  0
 65 66  1  0
 65 67  1  1
 68 69  1  0
 69 70  1  0
 69 72  1  1
 70 71  1  0
 70 74  2  0
 72 73  1  0
M  CHG  1   1   1
M  END
$$$$
