
     RDKit          3D

 23 24  0  0  0  0  0  0  0  0999 V2000
   -7.1799  -33.9712  -15.4757 C   0  0  1  0  0  0  0  0  0  0  0  0
   -7.2917  -34.7627  -14.1602 C   0  0  1  0  0  0  0  0  0  0  0  0
   -6.0356  -35.5731  -13.9274 C   0  0  2  0  0  0  0  0  0  0  0  0
   -5.6481  -36.1525  -15.2948 C   0  0  1  0  0  0  0  0  0  0  0  0
   -5.2146  -34.9867  -16.1393 C   0  0  1  0  0  0  0  0  0  0  0  0
   -5.2839  -35.2647  -17.6121 C   0  0  0  0  0  0  0  0  0  0  0  0
   -7.9260  -32.8515  -15.3157 O   0  0  0  0  0  0  0  0  0  0  0  0
   -7.3590  -33.8085  -13.1340 O   0  0  0  0  0  0  0  0  0  0  0  0
   -6.3140  -36.6141  -13.0752 O   0  0  0  0  0  0  0  0  0  0  0  0
   -4.5597  -36.9783  -15.0764 O   0  0  0  0  0  0  0  0  0  0  0  0
   -5.8836  -33.8246  -15.8653 O   0  0  0  0  0  0  0  0  0  0  0  0
   -5.0783  -34.1710  -18.4066 O   0  0  0  0  0  0  0  0  0  0  0  0
   -5.9646  -29.4950  -15.7232 C   0  0  1  0  0  0  0  0  0  0  0  0
   -6.9611  -29.4407  -14.5813 C   0  0  1  0  0  0  0  0  0  0  0  0
   -8.0277  -30.4747  -14.9046 C   0  0  2  0  0  0  0  0  0  0  0  0
   -7.3276  -31.6556  -15.5235 C   0  0  1  0  0  0  0  0  0  0  0  0
   -5.8719  -31.7256  -15.1226 C   0  0  1  0  0  0  0  0  0  0  0  0
   -5.2145  -32.9025  -15.8109 C   0  0  0  0  0  0  0  0  0  0  0  0
   -5.2369  -28.3154  -15.6789 O   0  0  0  0  0  0  0  0  0  0  0  0
   -6.3676  -29.7564  -13.3606 O   0  0  0  0  0  0  0  0  0  0  0  0
   -8.8889  -29.8678  -15.8191 O   0  0  0  0  0  0  0  0  0  0  0  0
   -5.1681  -30.5932  -15.5296 O   0  0  0  0  0  0  0  0  0  0  0  0
   -6.1152  -33.2764  -16.8391 O   0  0  0  0  0  0  0  0  0  0  0  0
  1  2  1  0
  1  7  1  1
  1 11  1  0
  2  3  1  0
  2  8  1  1
  3  4  1  0
  3  9  1  1
  5  4  1  0
  4 10  1  1
  5  6  1  6
 11  5  1  0
  6 12  1  0
 16  7  1  1
 13 14  1  0
 13 19  1  1
 22 13  1  0
 15 14  1  0
 14 20  1  1
 16 15  1  0
 15 21  1  6
 17 16  1  0
 17 18  1  6
 17 22  1  0
 23 18  1  0
M  END
$$$$
