
     RDKit          3D

 23 24  0  0  0  0  0  0  0  0999 V2000
   -6.5577  -31.9183  -15.1386 C   0  0  1  0  0  0  0  0  0  0  0  0
   -7.6764  -30.8952  -14.8716 C   0  0  1  0  0  0  0  0  0  0  0  0
   -7.2208  -29.8740  -13.8526 C   0  0  2  0  0  0  0  0  0  0  0  0
   -6.4478  -30.6598  -12.7846 C   0  0  1  0  0  0  0  0  0  0  0  0
   -5.1885  -31.1451  -13.4470 C   0  0  1  0  0  0  0  0  0  0  0  0
   -4.5672  -32.3190  -12.7492 C   0  0  0  0  0  0  0  0  0  0  0  0
   -6.7201  -32.3416  -16.4155 O   0  0  0  0  0  0  0  0  0  0  0  0
   -7.8747  -30.2084  -16.0786 O   0  0  0  0  0  0  0  0  0  0  0  0
   -8.3181  -29.2968  -13.2609 O   0  0  0  0  0  0  0  0  0  0  0  0
   -6.1138  -29.7521  -11.7952 O   0  0  0  0  0  0  0  0  0  0  0  0
   -5.3376  -31.4348  -14.7764 O   0  0  0  0  0  0  0  0  0  0  0  0
   -4.9980  -32.5095  -11.4655 O   0  0  0  0  0  0  0  0  0  0  0  0
   -6.3206  -36.0974  -17.4222 C   0  0  1  0  0  0  0  0  0  0  0  0
   -7.7236  -35.5820  -17.6789 C   0  0  1  0  0  0  0  0  0  0  0  0
   -7.9219  -34.4118  -16.7289 C   0  0  2  0  0  0  0  0  0  0  0  0
   -6.6143  -33.6679  -16.6622 C   0  0  1  0  0  0  0  0  0  0  0  0
   -5.7654  -33.9025  -17.8907 C   0  0  1  0  0  0  0  0  0  0  0  0
   -4.4500  -33.1682  -17.7433 C   0  0  0  0  0  0  0  0  0  0  0  0
   -6.2608  -37.3802  -17.9455 O   0  0  0  0  0  0  0  0  0  0  0  0
   -7.8817  -35.1424  -18.9918 O   0  0  0  0  0  0  0  0  0  0  0  0
   -8.2441  -34.9696  -15.4914 O   0  0  0  0  0  0  0  0  0  0  0  0
   -5.4441  -35.2498  -18.0480 O   0  0  0  0  0  0  0  0  0  0  0  0
   -3.7601  -33.8542  -16.7129 O   0  0  0  0  0  0  0  0  0  0  0  0
  1  2  1  0
  1  7  1  6
  1 11  1  0
  2  3  1  0
  2  8  1  6
  3  4  1  0
  3  9  1  1
  5  4  1  0
  4 10  1  1
  5  6  1  1
 11  5  1  0
  6 12  1  0
 16  7  1  6
 13 14  1  0
 13 19  1  6
 22 13  1  0
 15 14  1  0
 14 20  1  6
 16 15  1  0
 15 21  1  1
 17 16  1  0
 17 18  1  1
 17 22  1  0
 23 18  1  0
M  END
$$$$
