
     RDKit          3D

 23 24  0  0  0  0  0  0  0  0999 V2000
   -6.8407  -32.4159  -15.0321 C   0  0  1  0  0  0  0  0  0  0  0  0
   -7.6626  -31.2503  -14.4531 C   0  0  1  0  0  0  0  0  0  0  0  0
   -6.9620  -30.6624  -13.2479 C   0  0  2  0  0  0  0  0  0  0  0  0
   -6.4136  -31.8566  -12.4549 C   0  0  1  0  0  0  0  0  0  0  0  0
   -5.3192  -32.4540  -13.2950 C   0  0  1  0  0  0  0  0  0  0  0  0
   -5.0164  -33.8811  -12.9448 C   0  0  0  0  0  0  0  0  0  0  0  0
   -7.1058  -32.4512  -16.3605 O   0  0  0  0  0  0  0  0  0  0  0  0
   -7.6803  -30.2551  -15.4417 O   0  0  0  0  0  0  0  0  0  0  0  0
   -7.8764  -30.0011  -12.4644 O   0  0  0  0  0  0  0  0  0  0  0  0
   -5.8596  -31.3378  -11.2981 O   0  0  0  0  0  0  0  0  0  0  0  0
   -5.5376  -32.3543  -14.6424 O   0  0  0  0  0  0  0  0  0  0  0  0
   -4.0364  -34.4566  -13.7050 O   0  0  0  0  0  0  0  0  0  0  0  0
   -6.6651  -35.7422  -18.4230 C   0  0  1  0  0  0  0  0  0  0  0  0
   -7.9498  -35.0157  -18.7718 C   0  0  1  0  0  0  0  0  0  0  0  0
   -8.3014  -34.1755  -17.5545 C   0  0  2  0  0  0  0  0  0  0  0  0
   -7.0089  -33.6424  -16.9951 C   0  0  1  0  0  0  0  0  0  0  0  0
   -5.9185  -33.5878  -18.0404 C   0  0  1  0  0  0  0  0  0  0  0  0
   -4.6369  -33.0894  -17.4078 C   0  0  0  0  0  0  0  0  0  0  0  0
   -6.5492  -36.8028  -19.3088 O   0  0  0  0  0  0  0  0  0  0  0  0
   -7.7897  -34.1822  -19.8771 O   0  0  0  0  0  0  0  0  0  0  0  0
   -8.9176  -35.0426  -16.6519 O   0  0  0  0  0  0  0  0  0  0  0  0
   -5.6327  -34.8509  -18.5565 O   0  0  0  0  0  0  0  0  0  0  0  0
   -3.8948  -34.2596  -17.1107 O   0  0  0  0  0  0  0  0  0  0  0  0
  1  2  1  0
  1  7  1  6
  1 11  1  0
  2  3  1  0
  2  8  1  6
  3  4  1  0
  3  9  1  1
  5  4  1  0
  4 10  1  1
  5  6  1  1
 11  5  1  0
  6 12  1  0
 16  7  1  6
 13 14  1  0
 13 19  1  6
 22 13  1  0
 15 14  1  0
 14 20  1  6
 16 15  1  0
 15 21  1  1
 17 16  1  0
 17 18  1  1
 17 22  1  0
 23 18  1  0
M  END
$$$$
