
     RDKit          3D

 23 24  0  0  0  0  0  0  0  0999 V2000
   -6.5173  -34.5195  -15.3440 C   0  0  1  0  0  0  0  0  0  0  0  0
   -6.5498  -35.8740  -14.6134 C   0  0  1  0  0  0  0  0  0  0  0  0
   -5.8053  -36.9197  -15.4141 C   0  0  2  0  0  0  0  0  0  0  0  0
   -6.1894  -36.6801  -16.8807 C   0  0  1  0  0  0  0  0  0  0  0  0
   -5.5674  -35.3681  -17.2706 C   0  0  1  0  0  0  0  0  0  0  0  0
   -6.2256  -34.7310  -18.4588 C   0  0  0  0  0  0  0  0  0  0  0  0
   -6.5710  -33.5636  -14.3851 O   0  0  0  0  0  0  0  0  0  0  0  0
   -5.8384  -35.6909  -13.4182 O   0  0  0  0  0  0  0  0  0  0  0  0
   -6.2392  -38.1708  -15.0482 O   0  0  0  0  0  0  0  0  0  0  0  0
   -5.5956  -37.6936  -17.6119 O   0  0  0  0  0  0  0  0  0  0  0  0
   -5.5011  -34.4605  -16.2482 O   0  0  0  0  0  0  0  0  0  0  0  0
   -6.0947  -33.3713  -18.5193 O   0  0  0  0  0  0  0  0  0  0  0  0
   -6.5892  -29.7835  -15.3796 C   0  0  1  0  0  0  0  0  0  0  0  0
   -7.3080  -30.0338  -14.0679 C   0  0  1  0  0  0  0  0  0  0  0  0
   -7.7645  -31.4834  -14.1087 C   0  0  2  0  0  0  0  0  0  0  0  0
   -6.6728  -32.2735  -14.7806 C   0  0  1  0  0  0  0  0  0  0  0  0
   -5.3295  -31.5889  -14.6736 C   0  0  1  0  0  0  0  0  0  0  0  0
   -4.2864  -32.4062  -15.4053 C   0  0  0  0  0  0  0  0  0  0  0  0
   -6.5356  -28.4087  -15.5534 O   0  0  0  0  0  0  0  0  0  0  0  0
   -6.4674  -29.8454  -12.9726 O   0  0  0  0  0  0  0  0  0  0  0  0
   -8.9340  -31.4984  -14.8692 O   0  0  0  0  0  0  0  0  0  0  0  0
   -5.3382  -30.3343  -15.2812 O   0  0  0  0  0  0  0  0  0  0  0  0
   -3.8890  -31.5987  -16.5001 O   0  0  0  0  0  0  0  0  0  0  0  0
  1  2  1  0
  1  7  1  1
  1 11  1  0
  2  3  1  0
  2  8  1  1
  3  4  1  0
  3  9  1  1
  5  4  1  0
  4 10  1  6
  5  6  1  6
 11  5  1  0
  6 12  1  0
 16  7  1  1
 13 14  1  0
 13 19  1  1
 22 13  1  0
 15 14  1  0
 14 20  1  1
 16 15  1  0
 15 21  1  6
 17 16  1  0
 17 18  1  6
 17 22  1  0
 23 18  1  0
M  END
$$$$
