
     RDKit          3D

 23 24  0  0  0  0  0  0  0  0999 V2000
   -7.4334  -33.6121  -15.5973 C   0  0  1  0  0  0  0  0  0  0  0  0
   -7.8004  -34.9804  -14.9952 C   0  0  1  0  0  0  0  0  0  0  0  0
   -6.7958  -36.0278  -15.4224 C   0  0  2  0  0  0  0  0  0  0  0  0
   -6.4978  -35.7476  -16.9017 C   0  0  1  0  0  0  0  0  0  0  0  0
   -5.7498  -34.4441  -16.9417 C   0  0  1  0  0  0  0  0  0  0  0  0
   -5.8144  -33.7655  -18.2782 C   0  0  0  0  0  0  0  0  0  0  0  0
   -7.8869  -32.6755  -14.7294 O   0  0  0  0  0  0  0  0  0  0  0  0
   -7.6796  -34.8409  -13.6045 O   0  0  0  0  0  0  0  0  0  0  0  0
   -7.3633  -37.2748  -15.3201 O   0  0  0  0  0  0  0  0  0  0  0  0
   -5.6587  -36.7604  -17.3312 O   0  0  0  0  0  0  0  0  0  0  0  0
   -6.1238  -33.5602  -15.9659 O   0  0  0  0  0  0  0  0  0  0  0  0
   -4.8726  -32.7923  -18.4670 O   0  0  0  0  0  0  0  0  0  0  0  0
   -6.1658  -29.1661  -14.7029 C   0  0  1  0  0  0  0  0  0  0  0  0
   -7.3957  -29.2072  -13.8166 C   0  0  1  0  0  0  0  0  0  0  0  0
   -8.2732  -30.3202  -14.3667 C   0  0  2  0  0  0  0  0  0  0  0  0
   -7.3571  -31.4326  -14.8037 C   0  0  1  0  0  0  0  0  0  0  0  0
   -6.0290  -31.3892  -14.0832 C   0  0  1  0  0  0  0  0  0  0  0  0
   -5.1389  -32.5002  -14.5976 C   0  0  0  0  0  0  0  0  0  0  0  0
   -5.5661  -27.9320  -14.5023 O   0  0  0  0  0  0  0  0  0  0  0  0
   -7.0698  -29.4890  -12.4913 O   0  0  0  0  0  0  0  0  0  0  0  0
   -8.9521  -29.7737  -15.4560 O   0  0  0  0  0  0  0  0  0  0  0  0
   -5.3465  -30.1985  -14.3273 O   0  0  0  0  0  0  0  0  0  0  0  0
   -4.1500  -31.8479  -15.3754 O   0  0  0  0  0  0  0  0  0  0  0  0
  1  2  1  0
  1  7  1  1
  1 11  1  0
  2  3  1  0
  2  8  1  1
  3  4  1  0
  3  9  1  6
  5  4  1  0
  4 10  1  1
  5  6  1  6
 11  5  1  0
  6 12  1  0
 16  7  1  1
 13 14  1  0
 13 19  1  1
 22 13  1  0
 15 14  1  0
 14 20  1  1
 16 15  1  0
 15 21  1  6
 17 16  1  0
 17 18  1  6
 17 22  1  0
 23 18  1  0
M  END
$$$$
