
     RDKit          3D

 23 24  0  0  0  0  0  0  0  0999 V2000
   -7.4973  -33.5189  -15.7166 C   0  0  1  0  0  0  0  0  0  0  0  0
   -8.0073  -34.8366  -15.1060 C   0  0  1  0  0  0  0  0  0  0  0  0
   -6.9265  -35.8938  -15.1627 C   0  0  2  0  0  0  0  0  0  0  0  0
   -6.2568  -35.7390  -16.5350 C   0  0  1  0  0  0  0  0  0  0  0  0
   -5.5238  -34.4268  -16.5009 C   0  0  1  0  0  0  0  0  0  0  0  0
   -5.2412  -33.8711  -17.8656 C   0  0  0  0  0  0  0  0  0  0  0  0
   -8.1594  -32.5201  -15.0842 O   0  0  0  0  0  0  0  0  0  0  0  0
   -8.2495  -34.5715  -13.7499 O   0  0  0  0  0  0  0  0  0  0  0  0
   -7.5012  -37.1399  -15.0956 O   0  0  0  0  0  0  0  0  0  0  0  0
   -5.3353  -36.7657  -16.6395 O   0  0  0  0  0  0  0  0  0  0  0  0
   -6.1369  -33.4690  -15.7393 O   0  0  0  0  0  0  0  0  0  0  0  0
   -5.2350  -34.8017  -18.8674 O   0  0  0  0  0  0  0  0  0  0  0  0
   -6.0313  -29.3729  -14.1646 C   0  0  1  0  0  0  0  0  0  0  0  0
   -7.2324  -29.5380  -13.2535 C   0  0  1  0  0  0  0  0  0  0  0  0
   -8.2514  -30.3438  -14.0431 C   0  0  2  0  0  0  0  0  0  0  0  0
   -7.4871  -31.3727  -14.8336 C   0  0  1  0  0  0  0  0  0  0  0  0
   -6.1440  -31.6815  -14.2129 C   0  0  1  0  0  0  0  0  0  0  0  0
   -5.4075  -32.6839  -15.0755 C   0  0  0  0  0  0  0  0  0  0  0  0
   -5.2831  -28.3210  -13.6579 O   0  0  0  0  0  0  0  0  0  0  0  0
   -6.9059  -30.2247  -12.0857 O   0  0  0  0  0  0  0  0  0  0  0  0
   -8.8900  -29.4361  -14.8884 O   0  0  0  0  0  0  0  0  0  0  0  0
   -5.3311  -30.5508  -14.1491 O   0  0  0  0  0  0  0  0  0  0  0  0
   -4.0474  -32.2905  -15.0156 O   0  0  0  0  0  0  0  0  0  0  0  0
  1  2  1  0
  1  7  1  1
  1 11  1  0
  2  3  1  0
  2  8  1  1
  3  4  1  0
  3  9  1  6
  5  4  1  0
  4 10  1  1
  5  6  1  6
 11  5  1  0
  6 12  1  0
 16  7  1  1
 13 14  1  0
 13 19  1  1
 22 13  1  0
 15 14  1  0
 14 20  1  1
 16 15  1  0
 15 21  1  6
 17 16  1  0
 17 18  1  6
 17 22  1  0
 23 18  1  0
M  END
$$$$
