
     RDKit          3D

 23 24  0  0  0  0  0  0  0  0999 V2000
   -6.6345  -32.8182  -14.3528 C   0  0  1  0  0  0  0  0  0  0  0  0
   -6.9505  -32.2092  -12.9749 C   0  0  1  0  0  0  0  0  0  0  0  0
   -7.5647  -30.8361  -13.1368 C   0  0  2  0  0  0  0  0  0  0  0  0
   -6.7771  -30.1520  -14.2626 C   0  0  1  0  0  0  0  0  0  0  0  0
   -7.1213  -30.8897  -15.5266 C   0  0  1  0  0  0  0  0  0  0  0  0
   -6.1017  -30.7107  -16.6126 C   0  0  0  0  0  0  0  0  0  0  0  0
   -6.7336  -34.1622  -14.2115 O   0  0  0  0  0  0  0  0  0  0  0  0
   -7.9313  -33.0309  -12.3997 O   0  0  0  0  0  0  0  0  0  0  0  0
   -7.3873  -30.1162  -11.9803 O   0  0  0  0  0  0  0  0  0  0  0  0
   -7.2622  -28.8592  -14.3507 O   0  0  0  0  0  0  0  0  0  0  0  0
   -7.3577  -32.2251  -15.3422 O   0  0  0  0  0  0  0  0  0  0  0  0
   -5.2256  -29.6816  -16.4050 O   0  0  0  0  0  0  0  0  0  0  0  0
   -5.6188  -36.5886  -17.0661 C   0  0  1  0  0  0  0  0  0  0  0  0
   -5.1155  -37.0344  -15.7068 C   0  0  1  0  0  0  0  0  0  0  0  0
   -5.0598  -35.7815  -14.8475 C   0  0  2  0  0  0  0  0  0  0  0  0
   -6.2563  -34.9418  -15.2093 C   0  0  1  0  0  0  0  0  0  0  0  0
   -7.3728  -35.7711  -15.8012 C   0  0  1  0  0  0  0  0  0  0  0  0
   -8.5244  -34.8670  -16.1854 C   0  0  0  0  0  0  0  0  0  0  0  0
   -5.2883  -37.5903  -17.9662 O   0  0  0  0  0  0  0  0  0  0  0  0
   -5.9722  -37.9613  -15.1159 O   0  0  0  0  0  0  0  0  0  0  0  0
   -3.8721  -35.1332  -15.1871 O   0  0  0  0  0  0  0  0  0  0  0  0
   -6.9748  -36.4143  -16.9722 O   0  0  0  0  0  0  0  0  0  0  0  0
   -8.3188  -34.5734  -17.5565 O   0  0  0  0  0  0  0  0  0  0  0  0
  1  2  1  0
  1  7  1  1
  1 11  1  0
  2  3  1  0
  2  8  1  6
  3  4  1  0
  3  9  1  1
  5  4  1  0
  4 10  1  6
  5  6  1  6
 11  5  1  0
  6 12  1  0
 16  7  1  1
 13 14  1  0
 13 19  1  6
 22 13  1  0
 15 14  1  0
 14 20  1  1
 16 15  1  0
 15 21  1  6
 17 16  1  0
 17 18  1  6
 17 22  1  0
 23 18  1  0
M  END
$$$$
