
     RDKit          3D

 23 24  0  0  0  0  0  0  0  0999 V2000
   -7.0071  -32.5387  -14.7582 C   0  0  1  0  0  0  0  0  0  0  0  0
   -7.8217  -31.4820  -13.9907 C   0  0  1  0  0  0  0  0  0  0  0  0
   -6.9326  -30.7397  -13.0173 C   0  0  2  0  0  0  0  0  0  0  0  0
   -6.0177  -31.7999  -12.3892 C   0  0  1  0  0  0  0  0  0  0  0  0
   -5.0999  -32.2672  -13.4844 C   0  0  1  0  0  0  0  0  0  0  0  0
   -4.4976  -33.6151  -13.2169 C   0  0  0  0  0  0  0  0  0  0  0  0
   -7.5994  -32.6764  -15.9691 O   0  0  0  0  0  0  0  0  0  0  0  0
   -8.2508  -30.5488  -14.9462 O   0  0  0  0  0  0  0  0  0  0  0  0
   -7.7037  -30.1851  -12.0247 O   0  0  0  0  0  0  0  0  0  0  0  0
   -5.2701  -31.1499  -11.4234 O   0  0  0  0  0  0  0  0  0  0  0  0
   -5.6737  -32.2655  -14.7270 O   0  0  0  0  0  0  0  0  0  0  0  0
   -4.1859  -33.8477  -11.9060 O   0  0  0  0  0  0  0  0  0  0  0  0
   -6.4758  -35.5301  -18.3925 C   0  0  1  0  0  0  0  0  0  0  0  0
   -7.9284  -35.1448  -18.5964 C   0  0  1  0  0  0  0  0  0  0  0  0
   -8.3922  -34.5424  -17.2798 C   0  0  2  0  0  0  0  0  0  0  0  0
   -7.2444  -33.7362  -16.7320 C   0  0  1  0  0  0  0  0  0  0  0  0
   -6.2895  -33.2982  -17.8189 C   0  0  1  0  0  0  0  0  0  0  0  0
   -5.1375  -32.5347  -17.2016 C   0  0  0  0  0  0  0  0  0  0  0  0
   -6.1558  -36.4368  -19.3917 O   0  0  0  0  0  0  0  0  0  0  0  0
   -8.0765  -34.2027  -19.6124 O   0  0  0  0  0  0  0  0  0  0  0  0
   -8.6898  -35.6203  -16.4458 O   0  0  0  0  0  0  0  0  0  0  0  0
   -5.7249  -34.3872  -18.4812 O   0  0  0  0  0  0  0  0  0  0  0  0
   -4.1123  -33.4969  -17.0244 O   0  0  0  0  0  0  0  0  0  0  0  0
  1  2  1  0
  1  7  1  6
  1 11  1  0
  2  3  1  0
  2  8  1  6
  3  4  1  0
  3  9  1  1
  5  4  1  0
  4 10  1  1
  5  6  1  1
 11  5  1  0
  6 12  1  0
 16  7  1  6
 13 14  1  0
 13 19  1  6
 22 13  1  0
 15 14  1  0
 14 20  1  6
 16 15  1  0
 15 21  1  1
 17 16  1  0
 17 18  1  1
 17 22  1  0
 23 18  1  0
M  END
$$$$
