
     RDKit          3D

 23 24  0  0  0  0  0  0  0  0999 V2000
   -6.9250  -33.1401  -16.7685 C   0  0  1  0  0  0  0  0  0  0  0  0
   -8.2259  -33.0927  -17.5900 C   0  0  1  0  0  0  0  0  0  0  0  0
   -8.5281  -34.4557  -18.1728 C   0  0  2  0  0  0  0  0  0  0  0  0
   -7.1824  -35.0172  -18.6520 C   0  0  1  0  0  0  0  0  0  0  0  0
   -6.3735  -35.2879  -17.4140 C   0  0  1  0  0  0  0  0  0  0  0  0
   -4.8974  -35.3538  -17.6742 C   0  0  0  0  0  0  0  0  0  0  0  0
   -7.0476  -32.2014  -15.7991 O   0  0  0  0  0  0  0  0  0  0  0  0
   -9.2527  -32.7999  -16.6801 O   0  0  0  0  0  0  0  0  0  0  0  0
   -9.3547  -34.3151  -19.2610 O   0  0  0  0  0  0  0  0  0  0  0  0
   -7.4600  -36.2189  -19.2789 O   0  0  0  0  0  0  0  0  0  0  0  0
   -6.6149  -34.4110  -16.3913 O   0  0  0  0  0  0  0  0  0  0  0  0
   -4.5296  -35.0162  -18.9472 O   0  0  0  0  0  0  0  0  0  0  0  0
   -4.3983  -32.2844  -12.9262 C   0  0  1  0  0  0  0  0  0  0  0  0
   -5.6000  -31.4298  -12.5722 C   0  0  1  0  0  0  0  0  0  0  0  0
   -6.2018  -30.9823  -13.8946 C   0  0  2  0  0  0  0  0  0  0  0  0
   -6.0852  -32.1407  -14.8497 C   0  0  1  0  0  0  0  0  0  0  0  0
   -5.9838  -33.4639  -14.1262 C   0  0  1  0  0  0  0  0  0  0  0  0
   -5.8228  -34.5804  -15.1356 C   0  0  0  0  0  0  0  0  0  0  0  0
   -3.6054  -32.3544  -11.7906 O   0  0  0  0  0  0  0  0  0  0  0  0
   -6.5522  -32.1482  -11.8516 O   0  0  0  0  0  0  0  0  0  0  0  0
   -5.4316  -29.9009  -14.3229 O   0  0  0  0  0  0  0  0  0  0  0  0
   -4.8605  -33.5185  -13.3024 O   0  0  0  0  0  0  0  0  0  0  0  0
   -4.6547  -35.2742  -14.7324 O   0  0  0  0  0  0  0  0  0  0  0  0
  1  2  1  0
  1  7  1  1
  1 11  1  0
  2  3  1  0
  2  8  1  1
  3  4  1  0
  3  9  1  6
  5  4  1  0
  4 10  1  1
  5  6  1  6
 11  5  1  0
  6 12  1  0
 16  7  1  6
 13 14  1  0
 13 19  1  1
 22 13  1  0
 15 14  1  0
 14 20  1  6
 16 15  1  0
 15 21  1  6
 17 16  1  0
 17 18  1  6
 17 22  1  0
 23 18  1  0
M  END
$$$$
