
     RDKit          3D

 23 24  0  0  0  0  0  0  0  0999 V2000
   -6.6669  -32.4407  -14.8213 C   0  0  1  0  0  0  0  0  0  0  0  0
   -7.3888  -31.2680  -14.1336 C   0  0  1  0  0  0  0  0  0  0  0  0
   -6.5025  -30.6578  -13.0700 C   0  0  2  0  0  0  0  0  0  0  0  0
   -5.8242  -31.8369  -12.3591 C   0  0  1  0  0  0  0  0  0  0  0  0
   -4.8798  -32.4450  -13.3584 C   0  0  1  0  0  0  0  0  0  0  0  0
   -4.5152  -33.8651  -13.0400 C   0  0  0  0  0  0  0  0  0  0  0  0
   -7.1471  -32.4991  -16.0870 O   0  0  0  0  0  0  0  0  0  0  0  0
   -7.5750  -30.2896  -15.1216 O   0  0  0  0  0  0  0  0  0  0  0  0
   -7.2791  -29.9862  -12.1572 O   0  0  0  0  0  0  0  0  0  0  0  0
   -5.0900  -31.2970  -11.3180 O   0  0  0  0  0  0  0  0  0  0  0  0
   -5.3178  -32.3687  -14.6529 O   0  0  0  0  0  0  0  0  0  0  0  0
   -3.5401  -34.3939  -13.8396 O   0  0  0  0  0  0  0  0  0  0  0  0
   -6.4262  -35.5993  -18.3560 C   0  0  1  0  0  0  0  0  0  0  0  0
   -7.8209  -35.0441  -18.5716 C   0  0  1  0  0  0  0  0  0  0  0  0
   -8.1871  -34.3173  -17.2874 C   0  0  2  0  0  0  0  0  0  0  0  0
   -6.9393  -33.6351  -16.7924 C   0  0  1  0  0  0  0  0  0  0  0  0
   -5.9513  -33.3815  -17.9079 C   0  0  1  0  0  0  0  0  0  0  0  0
   -4.7038  -32.7383  -17.3411 C   0  0  0  0  0  0  0  0  0  0  0  0
   -6.2368  -36.5920  -19.3056 O   0  0  0  0  0  0  0  0  0  0  0  0
   -7.8622  -34.1470  -19.6372 O   0  0  0  0  0  0  0  0  0  0  0  0
   -8.6076  -35.3020  -16.3931 O   0  0  0  0  0  0  0  0  0  0  0  0
   -5.5379  -34.5675  -18.5126 O   0  0  0  0  0  0  0  0  0  0  0  0
   -3.7392  -33.7759  -17.3064 O   0  0  0  0  0  0  0  0  0  0  0  0
  1  2  1  0
  1  7  1  6
  1 11  1  0
  2  3  1  0
  2  8  1  6
  3  4  1  0
  3  9  1  1
  5  4  1  0
  4 10  1  1
  5  6  1  1
 11  5  1  0
  6 12  1  0
 16  7  1  6
 13 14  1  0
 13 19  1  6
 22 13  1  0
 15 14  1  0
 14 20  1  6
 16 15  1  0
 15 21  1  1
 17 16  1  0
 17 18  1  1
 17 22  1  0
 23 18  1  0
M  END
$$$$
