
     RDKit          3D

 23 24  0  0  0  0  0  0  0  0999 V2000
   -7.2820  -32.6884  -14.3179 C   0  0  1  0  0  0  0  0  0  0  0  0
   -7.1147  -33.7552  -13.2209 C   0  0  1  0  0  0  0  0  0  0  0  0
   -6.0737  -34.7726  -13.6331 C   0  0  2  0  0  0  0  0  0  0  0  0
   -6.3187  -35.0466  -15.1233 C   0  0  1  0  0  0  0  0  0  0  0  0
   -5.9469  -33.7845  -15.8508 C   0  0  1  0  0  0  0  0  0  0  0  0
   -6.5760  -33.6769  -17.2086 C   0  0  0  0  0  0  0  0  0  0  0  0
   -7.6536  -31.5463  -13.6905 O   0  0  0  0  0  0  0  0  0  0  0  0
   -6.6090  -33.0848  -12.0971 O   0  0  0  0  0  0  0  0  0  0  0  0
   -6.2732  -35.9397  -12.9363 O   0  0  0  0  0  0  0  0  0  0  0  0
   -5.4391  -36.0506  -15.4871 O   0  0  0  0  0  0  0  0  0  0  0  0
   -6.1995  -32.6412  -15.1421 O   0  0  0  0  0  0  0  0  0  0  0  0
   -5.7110  -33.8609  -18.2514 O   0  0  0  0  0  0  0  0  0  0  0  0
   -7.7326  -28.2483  -15.7872 C   0  0  1  0  0  0  0  0  0  0  0  0
   -8.1387  -28.0191  -14.3441 C   0  0  1  0  0  0  0  0  0  0  0  0
   -8.6565  -29.3551  -13.8359 C   0  0  2  0  0  0  0  0  0  0  0  0
   -7.7865  -30.4263  -14.4384 C   0  0  1  0  0  0  0  0  0  0  0  0
   -6.4256  -29.8977  -14.8301 C   0  0  1  0  0  0  0  0  0  0  0  0
   -5.6179  -31.0067  -15.4695 C   0  0  0  0  0  0  0  0  0  0  0  0
   -7.6594  -27.0006  -16.3878 O   0  0  0  0  0  0  0  0  0  0  0  0
   -7.0597  -27.6142  -13.5606 O   0  0  0  0  0  0  0  0  0  0  0  0
   -9.9697  -29.4599  -14.2948 O   0  0  0  0  0  0  0  0  0  0  0  0
   -6.5187  -28.8843  -15.7828 O   0  0  0  0  0  0  0  0  0  0  0  0
   -4.6087  -30.3445  -16.2121 O   0  0  0  0  0  0  0  0  0  0  0  0
  1  2  1  0
  1  7  1  1
  1 11  1  0
  2  3  1  0
  2  8  1  1
  3  4  1  0
  3  9  1  1
  5  4  1  0
  4 10  1  6
  5  6  1  6
 11  5  1  0
  6 12  1  0
 16  7  1  1
 13 14  1  0
 13 19  1  6
 22 13  1  0
 15 14  1  0
 14 20  1  1
 16 15  1  0
 15 21  1  6
 17 16  1  0
 17 18  1  6
 17 22  1  0
 23 18  1  0
M  END
$$$$
