
     RDKit          3D

 23 24  0  0  0  0  0  0  0  0999 V2000
   -6.7193  -32.6807  -14.7615 C   0  0  1  0  0  0  0  0  0  0  0  0
   -7.4643  -31.5216  -14.0752 C   0  0  1  0  0  0  0  0  0  0  0  0
   -6.4869  -30.6352  -13.3351 C   0  0  2  0  0  0  0  0  0  0  0  0
   -5.4843  -31.5828  -12.6622 C   0  0  1  0  0  0  0  0  0  0  0  0
   -4.6865  -32.2095  -13.7717 C   0  0  1  0  0  0  0  0  0  0  0  0
   -4.0292  -33.4980  -13.3732 C   0  0  0  0  0  0  0  0  0  0  0  0
   -7.4416  -33.0051  -15.8610 O   0  0  0  0  0  0  0  0  0  0  0  0
   -8.0185  -30.7481  -15.1060 O   0  0  0  0  0  0  0  0  0  0  0  0
   -7.1524  -29.9375  -12.3564 O   0  0  0  0  0  0  0  0  0  0  0  0
   -4.6463  -30.7893  -11.8992 O   0  0  0  0  0  0  0  0  0  0  0  0
   -5.3970  -32.4010  -14.9257 O   0  0  0  0  0  0  0  0  0  0  0  0
   -3.2121  -34.0376  -14.3275 O   0  0  0  0  0  0  0  0  0  0  0  0
   -6.1779  -35.7828  -18.3037 C   0  0  1  0  0  0  0  0  0  0  0  0
   -7.6918  -35.7053  -18.2590 C   0  0  1  0  0  0  0  0  0  0  0  0
   -8.0418  -35.0942  -16.9116 C   0  0  2  0  0  0  0  0  0  0  0  0
   -7.0092  -34.0370  -16.6222 C   0  0  1  0  0  0  0  0  0  0  0  0
   -6.3615  -33.5165  -17.8849 C   0  0  1  0  0  0  0  0  0  0  0  0
   -5.3045  -32.4943  -17.5258 C   0  0  0  0  0  0  0  0  0  0  0  0
   -5.8504  -36.6920  -19.2982 O   0  0  0  0  0  0  0  0  0  0  0  0
   -8.1993  -34.8998  -19.2767 O   0  0  0  0  0  0  0  0  0  0  0  0
   -7.9666  -36.1343  -15.9850 O   0  0  0  0  0  0  0  0  0  0  0  0
   -5.7042  -34.5277  -18.5839 O   0  0  0  0  0  0  0  0  0  0  0  0
   -4.0722  -33.1849  -17.6397 O   0  0  0  0  0  0  0  0  0  0  0  0
  1  2  1  0
  1  7  1  6
  1 11  1  0
  2  3  1  0
  2  8  1  6
  3  4  1  0
  3  9  1  1
  5  4  1  0
  4 10  1  1
  5  6  1  1
 11  5  1  0
  6 12  1  0
 16  7  1  6
 13 14  1  0
 13 19  1  6
 22 13  1  0
 15 14  1  0
 14 20  1  6
 16 15  1  0
 15 21  1  1
 17 16  1  0
 17 18  1  1
 17 22  1  0
 23 18  1  0
M  END
$$$$
