
     RDKit          3D

 23 24  0  0  0  0  0  0  0  0999 V2000
   -6.8698  -33.7246  -15.1456 C   0  0  1  0  0  0  0  0  0  0  0  0
   -7.6366  -35.0203  -14.8249 C   0  0  1  0  0  0  0  0  0  0  0  0
   -6.9694  -36.2032  -15.4916 C   0  0  2  0  0  0  0  0  0  0  0  0
   -6.5611  -35.7234  -16.8911 C   0  0  1  0  0  0  0  0  0  0  0  0
   -5.4647  -34.7149  -16.6880 C   0  0  1  0  0  0  0  0  0  0  0  0
   -5.2910  -33.7868  -17.8540 C   0  0  0  0  0  0  0  0  0  0  0  0
   -7.0550  -32.8964  -14.0893 O   0  0  0  0  0  0  0  0  0  0  0  0
   -7.5197  -35.2115  -13.4401 O   0  0  0  0  0  0  0  0  0  0  0  0
   -7.8784  -37.2242  -15.6282 O   0  0  0  0  0  0  0  0  0  0  0  0
   -6.0419  -36.8254  -17.5472 O   0  0  0  0  0  0  0  0  0  0  0  0
   -5.5921  -33.9813  -15.5396 O   0  0  0  0  0  0  0  0  0  0  0  0
   -4.2081  -32.9570  -17.7627 O   0  0  0  0  0  0  0  0  0  0  0  0
   -6.1757  -29.0973  -14.3593 C   0  0  1  0  0  0  0  0  0  0  0  0
   -7.3947  -29.3425  -13.4911 C   0  0  1  0  0  0  0  0  0  0  0  0
   -7.9773  -30.6697  -13.9496 C   0  0  2  0  0  0  0  0  0  0  0  0
   -6.8182  -31.5762  -14.2694 C   0  0  1  0  0  0  0  0  0  0  0  0
   -5.5606  -31.1685  -13.5366 C   0  0  1  0  0  0  0  0  0  0  0  0
   -4.4244  -32.0863  -13.9339 C   0  0  0  0  0  0  0  0  0  0  0  0
   -5.8786  -27.7462  -14.2639 O   0  0  0  0  0  0  0  0  0  0  0  0
   -7.0602  -29.4273  -12.1409 O   0  0  0  0  0  0  0  0  0  0  0  0
   -8.7236  -30.3887  -15.0943 O   0  0  0  0  0  0  0  0  0  0  0  0
   -5.1575  -29.8787  -13.8788 O   0  0  0  0  0  0  0  0  0  0  0  0
   -3.5311  -31.2677  -14.6689 O   0  0  0  0  0  0  0  0  0  0  0  0
  1  2  1  0
  1  7  1  1
  1 11  1  0
  2  3  1  0
  2  8  1  1
  3  4  1  0
  3  9  1  6
  5  4  1  0
  4 10  1  6
  5  6  1  6
 11  5  1  0
  6 12  1  0
 16  7  1  1
 13 14  1  0
 13 19  1  1
 22 13  1  0
 15 14  1  0
 14 20  1  1
 16 15  1  0
 15 21  1  6
 17 16  1  0
 17 18  1  6
 17 22  1  0
 23 18  1  0
M  END
$$$$
