
     RDKit          3D

 23 24  0  0  0  0  0  0  0  0999 V2000
   -7.0840  -33.6906  -14.7999 C   0  0  1  0  0  0  0  0  0  0  0  0
   -7.0281  -34.9904  -13.9772 C   0  0  1  0  0  0  0  0  0  0  0  0
   -6.1052  -35.9903  -14.6386 C   0  0  2  0  0  0  0  0  0  0  0  0
   -6.3854  -35.8910  -16.1443 C   0  0  1  0  0  0  0  0  0  0  0  0
   -5.8824  -34.5425  -16.5788 C   0  0  1  0  0  0  0  0  0  0  0  0
   -6.5025  -34.0637  -17.8584 C   0  0  0  0  0  0  0  0  0  0  0  0
   -7.3269  -32.6887  -13.9205 O   0  0  0  0  0  0  0  0  0  0  0  0
   -6.4476  -34.6497  -12.7464 O   0  0  0  0  0  0  0  0  0  0  0  0
   -6.4266  -37.2579  -14.2175 O   0  0  0  0  0  0  0  0  0  0  0  0
   -5.6212  -36.8721  -16.7507 O   0  0  0  0  0  0  0  0  0  0  0  0
   -6.0065  -33.5703  -15.6234 O   0  0  0  0  0  0  0  0  0  0  0  0
   -5.9750  -32.8996  -18.3443 O   0  0  0  0  0  0  0  0  0  0  0  0
   -6.8544  -28.9916  -15.0983 C   0  0  1  0  0  0  0  0  0  0  0  0
   -7.5515  -29.0796  -13.7544 C   0  0  1  0  0  0  0  0  0  0  0  0
   -8.2071  -30.4506  -13.7099 C   0  0  2  0  0  0  0  0  0  0  0  0
   -7.2623  -31.4159  -14.3756 C   0  0  1  0  0  0  0  0  0  0  0  0
   -5.8335  -30.9238  -14.3438 C   0  0  1  0  0  0  0  0  0  0  0  0
   -4.9429  -31.9117  -15.0663 C   0  0  0  0  0  0  0  0  0  0  0  0
   -6.6159  -27.6472  -15.3409 O   0  0  0  0  0  0  0  0  0  0  0  0
   -6.6524  -28.9636  -12.6960 O   0  0  0  0  0  0  0  0  0  0  0  0
   -9.3949  -30.3340  -14.4323 O   0  0  0  0  0  0  0  0  0  0  0  0
   -5.6897  -29.7087  -15.0117 O   0  0  0  0  0  0  0  0  0  0  0  0
   -4.7354  -31.3482  -16.3500 O   0  0  0  0  0  0  0  0  0  0  0  0
  1  2  1  0
  1  7  1  1
  1 11  1  0
  2  3  1  0
  2  8  1  1
  3  4  1  0
  3  9  1  1
  5  4  1  0
  4 10  1  6
  5  6  1  6
 11  5  1  0
  6 12  1  0
 16  7  1  1
 13 14  1  0
 13 19  1  1
 22 13  1  0
 15 14  1  0
 14 20  1  1
 16 15  1  0
 15 21  1  6
 17 16  1  0
 17 18  1  6
 17 22  1  0
 23 18  1  0
M  END
$$$$
