
     RDKit          3D

 27 29  0  0  0  0  0  0  0  0999 V2000
   91.2116   41.9037  103.1734 P   0  0  1  0  0  5  0  0  0  0  0  0
   91.3665   41.3393  104.5537 O   0  0  0  0  0  0  0  0  0  0  0  0
   90.0203   43.1266  103.2733 O   0  0  0  0  0  0  0  0  0  0  0  0
   92.6403   42.6837  102.6774 O   0  0  0  0  0  0  0  0  0  0  0  0
   91.3801   39.2567  102.2751 P   0  0  2  0  0  5  0  0  0  0  0  0
   90.9207   38.3835  101.1042 O   0  0  0  0  0  0  0  0  0  0  0  0
   90.7820   38.6497  103.7312 O   0  0  0  0  0  0  0  0  0  0  0  0
   90.6884   40.7891  102.0446 O   0  0  0  0  0  0  0  0  0  0  0  0
   93.0490   39.3079  102.2260 O   0  0  0  0  0  0  0  0  0  0  0  0
   93.5439   39.5193  100.9402 C   0  0  0  0  0  0  0  0  0  0  0  0
   95.0461   39.6369  101.0064 C   0  0  1  0  0  0  0  0  0  0  0  0
   95.4979   40.5503  101.9174 O   0  0  0  0  0  0  0  0  0  0  0  0
   95.7035   38.3262  101.3838 C   0  0  1  0  0  0  0  0  0  0  0  0
   95.7444   37.4342  100.3221 O   0  0  0  0  0  0  0  0  0  0  0  0
   97.0810   38.8436  101.7488 C   0  0  1  0  0  0  0  0  0  0  0  0
   97.7445   39.1548  100.5660 O   0  0  0  0  0  0  0  0  0  0  0  0
   96.7109   40.1505  102.4107 C   0  0  2  0  0  0  0  0  0  0  0  0
   96.7442   39.9979  103.8472 N   0  0  0  0  0  0  0  0  0  0  0  0
   95.8330   39.5146  104.6969 C   0  0  0  0  0  0  0  0  0  0  0  0
   96.2997   39.5646  105.9649 N   0  0  0  0  0  0  0  0  0  0  0  0
   97.5227   40.0838  105.9415 C   0  0  0  0  0  0  0  0  0  0  0  0
   98.4611   40.3656  106.9277 C   0  0  0  0  0  0  0  0  0  0  0  0
   98.1285   40.0699  108.2667 N   0  0  0  0  0  0  0  0  0  0  0  0
   99.6225   40.8993  106.5555 N   0  0  0  0  0  0  0  0  0  0  0  0
   99.9263   41.1754  105.2804 C   0  0  0  0  0  0  0  0  0  0  0  0
   99.0084   40.8971  104.3381 N   0  0  0  0  0  0  0  0  0  0  0  0
   97.8067   40.3585  104.6065 C   0  0  0  0  0  0  0  0  0  0  0  0
  1  2  2  0
  1  3  1  1
  1  4  1  0
  8  1  1  0
  5  6  2  0
  5  7  1  1
  5  8  1  0
  5  9  1  0
  9 10  1  0
 11 10  1  1
 11 12  1  0
 11 13  1  0
 12 17  1  0
 13 14  1  6
 13 15  1  0
 15 16  1  6
 15 17  1  0
 17 18  1  1
 18 19  1  0
 18 27  1  0
 19 20  2  0
 20 21  1  0
 21 22  1  0
 21 27  2  0
 22 23  1  0
 22 24  2  0
 24 25  1  0
 25 26  2  0
 26 27  1  0
M  END
$$$$
