
     RDKit          3D

 27 29  0  0  0  0  0  0  0  0999 V2000
  101.1964   41.6769  103.9702 P   0  0  1  0  0  5  0  0  0  0  0  0
  100.8875   40.4969  103.0984 O   0  0  0  0  0  0  0  0  0  0  0  0
  102.8809   41.9473  103.8526 O   0  0  0  0  0  0  0  0  0  0  0  0
  100.4548   43.0838  103.3653 O   0  0  0  0  0  0  0  0  0  0  0  0
   99.1745   41.4671  105.8963 P   0  0  2  0  0  5  0  0  0  0  0  0
   98.5647   42.4862  104.9296 O   0  0  0  0  0  0  0  0  0  0  0  0
   98.9726   41.9766  107.4919 O   0  0  0  0  0  0  0  0  0  0  0  0
  100.8422   41.4328  105.5843 O   0  0  0  0  0  0  0  0  0  0  0  0
   98.4474   39.9960  105.5841 O   0  0  0  0  0  0  0  0  0  0  0  0
   98.9818   39.3574  104.4662 C   0  0  0  0  0  0  0  0  0  0  0  0
   97.8620   38.7134  103.6877 C   0  0  1  0  0  0  0  0  0  0  0  0
   96.6931   38.5884  104.3852 O   0  0  0  0  0  0  0  0  0  0  0  0
   97.5104   39.4983  102.4416 C   0  0  1  0  0  0  0  0  0  0  0  0
   98.4314   39.3058  101.4221 O   0  0  0  0  0  0  0  0  0  0  0  0
   96.1696   38.8643  102.1275 C   0  0  1  0  0  0  0  0  0  0  0  0
   96.4114   37.6003  101.5985 O   0  0  0  0  0  0  0  0  0  0  0  0
   95.6307   38.6681  103.5253 C   0  0  2  0  0  0  0  0  0  0  0  0
   94.6925   39.7212  103.8402 N   0  0  0  0  0  0  0  0  0  0  0  0
   94.7445   40.6944  104.7545 C   0  0  0  0  0  0  0  0  0  0  0  0
   93.6314   41.4593  104.6904 N   0  0  0  0  0  0  0  0  0  0  0  0
   92.8491   40.9815  103.7283 C   0  0  0  0  0  0  0  0  0  0  0  0
   91.6082   41.3599  103.2285 C   0  0  0  0  0  0  0  0  0  0  0  0
   90.9709   42.4783  103.8064 N   0  0  0  0  0  0  0  0  0  0  0  0
   91.0886   40.6466  102.2318 N   0  0  0  0  0  0  0  0  0  0  0  0
   91.7040   39.5864  101.6916 C   0  0  0  0  0  0  0  0  0  0  0  0
   92.9034   39.2330  102.1859 N   0  0  0  0  0  0  0  0  0  0  0  0
   93.5156   39.8844  103.1894 C   0  0  0  0  0  0  0  0  0  0  0  0
  1  2  2  0
  1  3  1  1
  1  4  1  0
  8  1  1  0
  5  6  2  0
  5  7  1  1
  5  8  1  0
  5  9  1  0
  9 10  1  0
 11 10  1  1
 11 12  1  0
 11 13  1  0
 12 17  1  0
 13 14  1  6
 13 15  1  0
 15 16  1  1
 15 17  1  0
 17 18  1  1
 18 19  1  0
 18 27  1  0
 19 20  2  0
 20 21  1  0
 21 22  1  0
 21 27  2  0
 22 23  1  0
 22 24  2  0
 24 25  1  0
 25 26  2  0
 26 27  1  0
M  END
$$$$
