
     RDKit          3D

 27 29  0  0  0  0  0  0  0  0999 V2000
  101.6411   41.8457  103.3714 P   0  0  1  0  0  5  0  0  0  0  0  0
  102.5947   40.7929  103.8511 O   0  0  0  0  0  0  0  0  0  0  0  0
  102.5917   43.1615  102.8332 O   0  0  0  0  0  0  0  0  0  0  0  0
  100.7807   41.3031  102.0072 O   0  0  0  0  0  0  0  0  0  0  0  0
   99.8270   41.1761  105.3968 P   0  0  2  0  0  5  0  0  0  0  0  0
   98.5439   41.7787  105.9756 O   0  0  0  0  0  0  0  0  0  0  0  0
  100.8523   40.6729  106.6386 O   0  0  0  0  0  0  0  0  0  0  0  0
  100.6199   42.4221  104.5610 O   0  0  0  0  0  0  0  0  0  0  0  0
   99.3716   39.9303  104.3815 O   0  0  0  0  0  0  0  0  0  0  0  0
   98.4169   40.3210  103.4441 C   0  0  0  0  0  0  0  0  0  0  0  0
   97.3731   39.2386  103.3271 C   0  0  1  0  0  0  0  0  0  0  0  0
   96.4602   39.2271  104.3445 O   0  0  0  0  0  0  0  0  0  0  0  0
   96.5626   39.3647  102.0545 C   0  0  1  0  0  0  0  0  0  0  0  0
   97.2597   38.9177  100.9413 O   0  0  0  0  0  0  0  0  0  0  0  0
   95.4086   38.4486  102.4116 C   0  0  1  0  0  0  0  0  0  0  0  0
   95.8640   37.1370  102.3203 O   0  0  0  0  0  0  0  0  0  0  0  0
   95.2567   38.7675  103.8807 C   0  0  2  0  0  0  0  0  0  0  0  0
   94.1591   39.6880  104.0705 N   0  0  0  0  0  0  0  0  0  0  0  0
   93.9380   40.6017  105.0203 C   0  0  0  0  0  0  0  0  0  0  0  0
   92.7681   41.2407  104.7945 N   0  0  0  0  0  0  0  0  0  0  0  0
   92.2233   40.7403  103.6906 C   0  0  0  0  0  0  0  0  0  0  0  0
   91.0486   41.0091  102.9972 C   0  0  0  0  0  0  0  0  0  0  0  0
   90.1928   42.0114  103.5014 N   0  0  0  0  0  0  0  0  0  0  0  0
   90.7949   40.3065  101.8954 N   0  0  0  0  0  0  0  0  0  0  0  0
   91.6159   39.3573  101.4270 C   0  0  0  0  0  0  0  0  0  0  0  0
   92.7479   39.1089  102.1086 N   0  0  0  0  0  0  0  0  0  0  0  0
   93.0985   39.7600  103.2309 C   0  0  0  0  0  0  0  0  0  0  0  0
  1  2  2  0
  1  3  1  6
  1  4  1  0
  8  1  1  0
  5  6  2  0
  5  7  1  1
  5  8  1  0
  5  9  1  0
  9 10  1  0
 11 10  1  1
 11 12  1  0
 11 13  1  0
 12 17  1  0
 13 14  1  6
 13 15  1  0
 15 16  1  1
 15 17  1  0
 17 18  1  6
 18 19  1  0
 18 27  1  0
 19 20  2  0
 20 21  1  0
 21 22  1  0
 21 27  2  0
 22 23  1  0
 22 24  2  0
 24 25  1  0
 25 26  2  0
 26 27  1  0
M  END
$$$$
