
     RDKit          3D

 27 29  0  0  0  0  0  0  0  0999 V2000
   99.5942   43.0801  104.8858 P   0  0  1  0  0  5  0  0  0  0  0  0
  100.0333   44.5057  105.0365 O   0  0  0  0  0  0  0  0  0  0  0  0
   98.0173   43.1189  104.2250 O   0  0  0  0  0  0  0  0  0  0  0  0
  100.5594   42.2699  103.7423 O   0  0  0  0  0  0  0  0  0  0  0  0
  100.0017   40.6286  106.1763 P   0  0  2  0  0  5  0  0  0  0  0  0
  100.2896   40.1177  107.5908 O   0  0  0  0  0  0  0  0  0  0  0  0
  101.4116   40.6193  105.2497 O   0  0  0  0  0  0  0  0  0  0  0  0
   99.5091   42.2452  106.3300 O   0  0  0  0  0  0  0  0  0  0  0  0
   98.7962   39.6631  105.5398 O   0  0  0  0  0  0  0  0  0  0  0  0
   98.6168   39.8574  104.1712 C   0  0  0  0  0  0  0  0  0  0  0  0
   97.5409   38.9212  103.6803 C   0  0  1  0  0  0  0  0  0  0  0  0
   96.4723   38.8026  104.5243 O   0  0  0  0  0  0  0  0  0  0  0  0
   96.9637   39.3642  102.3525 C   0  0  1  0  0  0  0  0  0  0  0  0
   97.8071   39.0736  101.2899 O   0  0  0  0  0  0  0  0  0  0  0  0
   95.7108   38.5106  102.3374 C   0  0  1  0  0  0  0  0  0  0  0  0
   96.0914   37.2033  102.0507 O   0  0  0  0  0  0  0  0  0  0  0  0
   95.3365   38.5564  103.8005 C   0  0  2  0  0  0  0  0  0  0  0  0
   94.2828   39.5237  104.0058 N   0  0  0  0  0  0  0  0  0  0  0  0
   94.1461   40.4871  104.9218 C   0  0  0  0  0  0  0  0  0  0  0  0
   92.9876   41.1571  104.7298 N   0  0  0  0  0  0  0  0  0  0  0  0
   92.3653   40.6271  103.6821 C   0  0  0  0  0  0  0  0  0  0  0  0
   91.1634   40.9065  103.0417 C   0  0  0  0  0  0  0  0  0  0  0  0
   90.3714   41.9610  103.5435 N   0  0  0  0  0  0  0  0  0  0  0  0
   90.8248   40.1641  101.9898 N   0  0  0  0  0  0  0  0  0  0  0  0
   91.5859   39.1653  101.5230 C   0  0  0  0  0  0  0  0  0  0  0  0
   92.7453   38.9074  102.1532 N   0  0  0  0  0  0  0  0  0  0  0  0
   93.1798   39.5958  103.2225 C   0  0  0  0  0  0  0  0  0  0  0  0
  1  2  2  0
  1  3  1  6
  1  4  1  0
  8  1  1  0
  5  6  2  0
  5  7  1  6
  5  8  1  0
  5  9  1  0
  9 10  1  0
 11 10  1  1
 11 12  1  0
 11 13  1  0
 12 17  1  0
 13 14  1  6
 13 15  1  0
 15 16  1  1
 15 17  1  0
 17 18  1  6
 18 19  1  0
 18 27  1  0
 19 20  2  0
 20 21  1  0
 21 22  1  0
 21 27  2  0
 22 23  1  0
 22 24  2  0
 24 25  1  0
 25 26  2  0
 26 27  1  0
M  END
$$$$
