
     RDKit          3D

 27 29  0  0  0  0  0  0  0  0999 V2000
  102.3207   41.9350  103.7289 P   0  0  1  0  0  5  0  0  0  0  0  0
  102.7947   42.4297  102.3953 O   0  0  0  0  0  0  0  0  0  0  0  0
  103.5719   40.9568  104.3633 O   0  0  0  0  0  0  0  0  0  0  0  0
  102.1394   43.2270  104.8213 O   0  0  0  0  0  0  0  0  0  0  0  0
   99.6177   41.8336  103.0043 P   0  0  2  0  0  5  0  0  0  0  0  0
  100.0172   42.2779  101.5945 O   0  0  0  0  0  0  0  0  0  0  0  0
   99.3490   43.1764  103.9898 O   0  0  0  0  0  0  0  0  0  0  0  0
  100.9439   40.9926  103.6473 O   0  0  0  0  0  0  0  0  0  0  0  0
   98.2708   40.8576  102.8499 O   0  0  0  0  0  0  0  0  0  0  0  0
   98.4946   39.5562  103.2963 C   0  0  0  0  0  0  0  0  0  0  0  0
   97.2939   38.7086  102.9575 C   0  0  1  0  0  0  0  0  0  0  0  0
   96.3621   38.6315  103.9546 O   0  0  0  0  0  0  0  0  0  0  0  0
   96.5514   39.2320  101.7462 C   0  0  1  0  0  0  0  0  0  0  0  0
   97.1992   38.9230  100.5589 O   0  0  0  0  0  0  0  0  0  0  0  0
   95.2551   38.4624  101.9067 C   0  0  1  0  0  0  0  0  0  0  0  0
   95.4957   37.1435  101.5345 O   0  0  0  0  0  0  0  0  0  0  0  0
   95.1142   38.4836  103.4109 C   0  0  2  0  0  0  0  0  0  0  0  0
   94.1741   39.5098  103.7998 N   0  0  0  0  0  0  0  0  0  0  0  0
   94.2191   40.4082  104.7882 C   0  0  0  0  0  0  0  0  0  0  0  0
   93.1070   41.1771  104.7752 N   0  0  0  0  0  0  0  0  0  0  0  0
   92.3324   40.7774  103.7721 C   0  0  0  0  0  0  0  0  0  0  0  0
   91.0960   41.1954  103.2933 C   0  0  0  0  0  0  0  0  0  0  0  0
   90.4546   42.2657  103.9521 N   0  0  0  0  0  0  0  0  0  0  0  0
   90.5843   40.5633  102.2394 N   0  0  0  0  0  0  0  0  0  0  0  0
   91.2035   39.5480  101.6227 C   0  0  0  0  0  0  0  0  0  0  0  0
   92.3985   39.1554  102.0976 N   0  0  0  0  0  0  0  0  0  0  0  0
   93.0028   39.7252  103.1542 C   0  0  0  0  0  0  0  0  0  0  0  0
  1  2  2  0
  1  3  1  1
  1  4  1  0
  8  1  1  0
  5  6  2  0
  5  7  1  1
  5  8  1  0
  5  9  1  0
  9 10  1  0
 11 10  1  1
 11 12  1  0
 11 13  1  0
 12 17  1  0
 13 14  1  6
 13 15  1  0
 15 16  1  1
 15 17  1  0
 17 18  1  6
 18 19  1  0
 18 27  1  0
 19 20  2  0
 20 21  1  0
 21 22  1  0
 21 27  2  0
 22 23  1  0
 22 24  2  0
 24 25  1  0
 25 26  2  0
 26 27  1  0
M  END
$$$$
