
     RDKit          3D

 27 29  0  0  0  0  0  0  0  0999 V2000
  100.7526   41.5925  103.4357 P   0  0  1  0  0  5  0  0  0  0  0  0
  100.7809   40.5767  102.3334 O   0  0  0  0  0  0  0  0  0  0  0  0
  101.4204   40.8373  104.8172 O   0  0  0  0  0  0  0  0  0  0  0  0
  101.7802   42.9004  103.0765 O   0  0  0  0  0  0  0  0  0  0  0  0
   98.7706   41.6441  105.4133 P   0  0  2  0  0  5  0  0  0  0  0  0
   97.7986   42.7097  105.9275 O   0  0  0  0  0  0  0  0  0  0  0  0
  100.1751   41.6295  106.3480 O   0  0  0  0  0  0  0  0  0  0  0  0
   99.2150   42.1038  103.8413 O   0  0  0  0  0  0  0  0  0  0  0  0
   97.9577   40.1849  105.4342 O   0  0  0  0  0  0  0  0  0  0  0  0
   98.4915   39.2581  104.5404 C   0  0  0  0  0  0  0  0  0  0  0  0
   97.3653   38.6143  103.7710 C   0  0  1  0  0  0  0  0  0  0  0  0
   96.1893   38.5303  104.4626 O   0  0  0  0  0  0  0  0  0  0  0  0
   97.0376   39.3716  102.5015 C   0  0  1  0  0  0  0  0  0  0  0  0
   97.9621   39.1341  101.4946 O   0  0  0  0  0  0  0  0  0  0  0  0
   95.6872   38.7546  102.1943 C   0  0  1  0  0  0  0  0  0  0  0  0
   95.9087   37.4724  101.7016 O   0  0  0  0  0  0  0  0  0  0  0  0
   95.1347   38.6067  103.5928 C   0  0  2  0  0  0  0  0  0  0  0  0
   94.2145   39.6854  103.8719 N   0  0  0  0  0  0  0  0  0  0  0  0
   94.2205   40.6134  104.8334 C   0  0  0  0  0  0  0  0  0  0  0  0
   93.1499   41.4293  104.7057 N   0  0  0  0  0  0  0  0  0  0  0  0
   92.4418   41.0304  103.6543 C   0  0  0  0  0  0  0  0  0  0  0  0
   91.2690   41.4857  103.0627 C   0  0  0  0  0  0  0  0  0  0  0  0
   90.6263   42.6044  103.6340 N   0  0  0  0  0  0  0  0  0  0  0  0
   90.8159   40.8416  101.9894 N   0  0  0  0  0  0  0  0  0  0  0  0
   91.4356   39.7803  101.4565 C   0  0  0  0  0  0  0  0  0  0  0  0
   92.5687   39.3520  102.0400 N   0  0  0  0  0  0  0  0  0  0  0  0
   93.1107   39.9299  103.1256 C   0  0  0  0  0  0  0  0  0  0  0  0
  1  2  2  0
  1  3  1  1
  1  4  1  0
  8  1  1  0
  5  6  2  0
  5  7  1  1
  5  8  1  0
  5  9  1  0
  9 10  1  0
 11 10  1  1
 11 12  1  0
 11 13  1  0
 12 17  1  0
 13 14  1  6
 13 15  1  0
 15 16  1  1
 15 17  1  0
 17 18  1  1
 18 19  1  0
 18 27  1  0
 19 20  2  0
 20 21  1  0
 21 22  1  0
 21 27  2  0
 22 23  1  0
 22 24  2  0
 24 25  1  0
 25 26  2  0
 26 27  1  0
M  END
$$$$
