
     RDKit          3D

 27 29  0  0  0  0  0  0  0  0999 V2000
  100.6483   42.1604  103.2605 P   0  0  1  0  0  5  0  0  0  0  0  0
  102.1397   42.1643  103.4142 O   0  0  0  0  0  0  0  0  0  0  0  0
  100.2600   43.4461  102.2018 O   0  0  0  0  0  0  0  0  0  0  0  0
  100.1263   40.7406  102.4813 O   0  0  0  0  0  0  0  0  0  0  0  0
  100.2335   41.3017  105.8934 P   0  0  2  0  0  5  0  0  0  0  0  0
   99.8810   41.9462  107.2370 O   0  0  0  0  0  0  0  0  0  0  0  0
  101.8961   41.0362  105.7871 O   0  0  0  0  0  0  0  0  0  0  0  0
   99.8233   42.4244  104.6888 O   0  0  0  0  0  0  0  0  0  0  0  0
   99.3392   39.8961  105.7719 O   0  0  0  0  0  0  0  0  0  0  0  0
   97.9912   40.0876  106.0707 C   0  0  0  0  0  0  0  0  0  0  0  0
   97.1571   39.2611  105.1241 C   0  0  1  0  0  0  0  0  0  0  0  0
   95.8481   39.1321  105.4961 O   0  0  0  0  0  0  0  0  0  0  0  0
   97.1277   39.8496  103.7294 C   0  0  1  0  0  0  0  0  0  0  0  0
   98.3007   39.6036  103.0306 O   0  0  0  0  0  0  0  0  0  0  0  0
   95.9533   39.0744  103.1652 C   0  0  1  0  0  0  0  0  0  0  0  0
   96.3853   37.7769  102.9085 O   0  0  0  0  0  0  0  0  0  0  0  0
   95.0602   39.0153  104.3826 C   0  0  2  0  0  0  0  0  0  0  0  0
   94.0272   40.0206  104.2807 N   0  0  0  0  0  0  0  0  0  0  0  0
   93.9053   41.2127  104.8723 C   0  0  0  0  0  0  0  0  0  0  0  0
   92.7638   41.8194  104.4762 N   0  0  0  0  0  0  0  0  0  0  0  0
   92.1378   41.0177  103.6209 C   0  0  0  0  0  0  0  0  0  0  0  0
   90.9476   41.1204  102.9099 C   0  0  0  0  0  0  0  0  0  0  0  0
   90.1759   42.2908  103.0696 N   0  0  0  0  0  0  0  0  0  0  0  0
   90.6005   40.1090  102.1169 N   0  0  0  0  0  0  0  0  0  0  0  0
   91.3423   39.0028  101.9739 C   0  0  0  0  0  0  0  0  0  0  0  0
   92.4906   38.9184  102.6682 N   0  0  0  0  0  0  0  0  0  0  0  0
   92.9323   39.8814  103.4951 C   0  0  0  0  0  0  0  0  0  0  0  0
  1  2  2  0
  1  3  1  6
  1  4  1  0
  8  1  1  0
  5  6  2  0
  5  7  1  1
  5  8  1  0
  5  9  1  0
  9 10  1  0
 11 10  1  1
 11 12  1  0
 11 13  1  0
 12 17  1  0
 13 14  1  6
 13 15  1  0
 15 16  1  1
 15 17  1  0
 17 18  1  6
 18 19  1  0
 18 27  1  0
 19 20  2  0
 20 21  1  0
 21 22  1  0
 21 27  2  0
 22 23  1  0
 22 24  2  0
 24 25  1  0
 25 26  2  0
 26 27  1  0
M  END
$$$$
