
     RDKit          3D

 27 29  0  0  0  0  0  0  0  0999 V2000
  100.1990   43.1080  104.5973 P   0  0  1  0  0  5  0  0  0  0  0  0
  100.1668   43.8512  103.2956 O   0  0  0  0  0  0  0  0  0  0  0  0
  101.5206   42.0260  104.5130 O   0  0  0  0  0  0  0  0  0  0  0  0
  100.5425   44.1644  105.8863 O   0  0  0  0  0  0  0  0  0  0  0  0
   99.0256   41.1208  106.1835 P   0  0  2  0  0  5  0  0  0  0  0  0
   98.2373   41.6976  107.3627 O   0  0  0  0  0  0  0  0  0  0  0  0
  100.6723   41.0685  106.5466 O   0  0  0  0  0  0  0  0  0  0  0  0
   98.8281   42.1988  104.8879 O   0  0  0  0  0  0  0  0  0  0  0  0
   98.3828   39.6153  105.8507 O   0  0  0  0  0  0  0  0  0  0  0  0
   98.8835   39.0642  104.6724 C   0  0  0  0  0  0  0  0  0  0  0  0
   97.7553   38.3991  103.9242 C   0  0  1  0  0  0  0  0  0  0  0  0
   96.5664   38.3849  104.5985 O   0  0  0  0  0  0  0  0  0  0  0  0
   97.4666   39.0830  102.6045 C   0  0  1  0  0  0  0  0  0  0  0  0
   98.4018   38.7625  101.6311 O   0  0  0  0  0  0  0  0  0  0  0  0
   96.1074   38.4785  102.3120 C   0  0  1  0  0  0  0  0  0  0  0  0
   96.3068   37.1633  101.9037 O   0  0  0  0  0  0  0  0  0  0  0  0
   95.5284   38.4304  103.7068 C   0  0  2  0  0  0  0  0  0  0  0  0
   94.6294   39.5448  103.9019 N   0  0  0  0  0  0  0  0  0  0  0  0
   94.7283   40.6213  104.6875 C   0  0  0  0  0  0  0  0  0  0  0  0
   93.6385   41.4088  104.5449 N   0  0  0  0  0  0  0  0  0  0  0  0
   92.8243   40.8419  103.6609 C   0  0  0  0  0  0  0  0  0  0  0  0
   91.5868   41.1965  103.1358 C   0  0  0  0  0  0  0  0  0  0  0  0
   90.9952   42.3982  103.5795 N   0  0  0  0  0  0  0  0  0  0  0  0
   91.0270   40.3831  102.2429 N   0  0  0  0  0  0  0  0  0  0  0  0
   91.5992   39.2444  101.8298 C   0  0  0  0  0  0  0  0  0  0  0  0
   92.7959   38.9154  102.3468 N   0  0  0  0  0  0  0  0  0  0  0  0
   93.4464   39.6652  103.2529 C   0  0  0  0  0  0  0  0  0  0  0  0
  1  2  2  0
  1  3  1  6
  1  4  1  0
  8  1  1  0
  5  6  2  0
  5  7  1  1
  5  8  1  0
  5  9  1  0
  9 10  1  0
 11 10  1  1
 11 12  1  0
 11 13  1  0
 12 17  1  0
 13 14  1  6
 13 15  1  0
 15 16  1  1
 15 17  1  0
 17 18  1  1
 18 19  1  0
 18 27  1  0
 19 20  2  0
 20 21  1  0
 21 22  1  0
 21 27  2  0
 22 23  1  0
 22 24  2  0
 24 25  1  0
 25 26  2  0
 26 27  1  0
M  END
$$$$
