
     RDKit          3D

 27 29  0  0  0  0  0  0  0  0999 V2000
  100.2053   41.6732  106.5751 P   0  0  1  0  0  5  0  0  0  0  0  0
  101.4608   41.9047  107.3612 O   0  0  0  0  0  0  0  0  0  0  0  0
   99.7986   40.0240  106.7729 O   0  0  0  0  0  0  0  0  0  0  0  0
   98.9092   42.5558  107.2360 O   0  0  0  0  0  0  0  0  0  0  0  0
   98.9183   41.7549  104.0895 P   0  0  2  0  0  5  0  0  0  0  0  0
   99.2766   41.6956  102.6019 O   0  0  0  0  0  0  0  0  0  0  0  0
   97.9638   43.1085  104.4107 O   0  0  0  0  0  0  0  0  0  0  0  0
  100.3753   41.9518  104.9369 O   0  0  0  0  0  0  0  0  0  0  0  0
   98.1599   40.3163  104.4710 O   0  0  0  0  0  0  0  0  0  0  0  0
   98.6116   39.2478  103.6983 C   0  0  0  0  0  0  0  0  0  0  0  0
   97.4618   38.7129  102.8817 C   0  0  1  0  0  0  0  0  0  0  0  0
   96.3116   38.5164  103.5936 O   0  0  0  0  0  0  0  0  0  0  0  0
   97.0856   39.6452  101.7497 C   0  0  1  0  0  0  0  0  0  0  0  0
   97.9748   39.5676  100.6876 O   0  0  0  0  0  0  0  0  0  0  0  0
   95.7281   39.0666  101.4017 C   0  0  1  0  0  0  0  0  0  0  0  0
   95.9381   37.8730  100.7182 O   0  0  0  0  0  0  0  0  0  0  0  0
   95.2264   38.7092  102.7814 C   0  0  2  0  0  0  0  0  0  0  0  0
   94.3116   39.7259  103.2478 N   0  0  0  0  0  0  0  0  0  0  0  0
   94.4236   40.6151  104.2390 C   0  0  0  0  0  0  0  0  0  0  0  0
   93.3093   41.3772  104.3148 N   0  0  0  0  0  0  0  0  0  0  0  0
   92.4658   40.9822  103.3669 C   0  0  0  0  0  0  0  0  0  0  0  0
   91.1955   41.3970  102.9837 C   0  0  0  0  0  0  0  0  0  0  0  0
   90.5980   42.4571  103.6979 N   0  0  0  0  0  0  0  0  0  0  0  0
   90.6117   40.7716  101.9638 N   0  0  0  0  0  0  0  0  0  0  0  0
   91.1898   39.7661  101.2936 C   0  0  0  0  0  0  0  0  0  0  0  0
   92.4185   39.3764  101.6762 N   0  0  0  0  0  0  0  0  0  0  0  0
   93.0951   39.9400  102.6915 C   0  0  0  0  0  0  0  0  0  0  0  0
  1  2  2  0
  1  3  1  6
  1  4  1  0
  8  1  1  0
  5  6  2  0
  5  7  1  6
  5  8  1  0
  5  9  1  0
  9 10  1  0
 11 10  1  1
 11 12  1  0
 11 13  1  0
 12 17  1  0
 13 14  1  6
 13 15  1  0
 15 16  1  6
 15 17  1  0
 17 18  1  1
 18 19  1  0
 18 27  1  0
 19 20  2  0
 20 21  1  0
 21 22  1  0
 21 27  2  0
 22 23  1  0
 22 24  2  0
 24 25  1  0
 25 26  2  0
 26 27  1  0
M  END
$$$$
