
     RDKit          3D

 27 29  0  0  0  0  0  0  0  0999 V2000
  100.9782   41.9090  103.1938 P   0  0  1  0  0  5  0  0  0  0  0  0
  101.7845   41.2496  102.1154 O   0  0  0  0  0  0  0  0  0  0  0  0
  101.7327   43.4075  103.5249 O   0  0  0  0  0  0  0  0  0  0  0  0
   99.4166   42.2867  102.6331 O   0  0  0  0  0  0  0  0  0  0  0  0
   99.4551   41.2179  105.4397 P   0  0  2  0  0  5  0  0  0  0  0  0
   99.0772   42.6998  105.3640 O   0  0  0  0  0  0  0  0  0  0  0  0
   99.7103   40.7575  107.0426 O   0  0  0  0  0  0  0  0  0  0  0  0
  100.9332   41.0468  104.6238 O   0  0  0  0  0  0  0  0  0  0  0  0
   98.2277   40.3583  104.7015 O   0  0  0  0  0  0  0  0  0  0  0  0
   98.6562   39.1305  104.1997 C   0  0  0  0  0  0  0  0  0  0  0  0
   97.5152   38.4784  103.4596 C   0  0  1  0  0  0  0  0  0  0  0  0
   96.3808   38.3190  104.2053 O   0  0  0  0  0  0  0  0  0  0  0  0
   97.0944   39.2776  102.2444 C   0  0  1  0  0  0  0  0  0  0  0  0
   97.9729   39.1203  101.1822 O   0  0  0  0  0  0  0  0  0  0  0  0
   95.7530   38.6233  101.9781 C   0  0  1  0  0  0  0  0  0  0  0  0
   95.9946   37.3734  101.4165 O   0  0  0  0  0  0  0  0  0  0  0  0
   95.2801   38.3930  103.3945 C   0  0  2  0  0  0  0  0  0  0  0  0
   94.3375   39.4222  103.7690 N   0  0  0  0  0  0  0  0  0  0  0  0
   94.3494   40.2922  104.7833 C   0  0  0  0  0  0  0  0  0  0  0  0
   93.2500   41.0779  104.7415 N   0  0  0  0  0  0  0  0  0  0  0  0
   92.5168   40.7178  103.6933 C   0  0  0  0  0  0  0  0  0  0  0  0
   91.3096   41.1675  103.1707 C   0  0  0  0  0  0  0  0  0  0  0  0
   90.6535   42.2289  103.8296 N   0  0  0  0  0  0  0  0  0  0  0  0
   90.8380   40.5726  102.0772 N   0  0  0  0  0  0  0  0  0  0  0  0
   91.4707   39.5655  101.4609 C   0  0  0  0  0  0  0  0  0  0  0  0
   92.6372   39.1418  101.9784 N   0  0  0  0  0  0  0  0  0  0  0  0
   93.2001   39.6730  103.0771 C   0  0  0  0  0  0  0  0  0  0  0  0
  1  2  2  0
  1  3  1  1
  1  4  1  0
  8  1  1  0
  5  6  2  0
  5  7  1  1
  5  8  1  0
  5  9  1  0
  9 10  1  0
 11 10  1  1
 11 12  1  0
 11 13  1  0
 12 17  1  0
 13 14  1  6
 13 15  1  0
 15 16  1  1
 15 17  1  0
 17 18  1  1
 18 19  1  0
 18 27  1  0
 19 20  2  0
 20 21  1  0
 21 22  1  0
 21 27  2  0
 22 23  1  0
 22 24  2  0
 24 25  1  0
 25 26  2  0
 26 27  1  0
M  END
$$$$
