
     RDKit          3D

 18 20  0  0  0  0  0  0  0  0999 V2000
    5.3091    5.5121   -7.0792 C   0  0  0  0  0  0  0  0  0  0  0  0
    5.0535    7.6325   -6.6084 C   0  0  0  0  0  0  0  0  0  0  0  0
    1.9825    6.7008   -9.9070 C   0  0  0  0  0  0  0  0  0  0  0  0
    6.6272    6.5137  -12.1551 N   0  0  0  0  0  0  0  0  0  0  0  0
    5.1944    4.1380   -7.5873 C   0  0  0  0  0  0  0  0  0  0  0  0
    6.5435    7.4553  -11.2167 C   0  0  0  0  0  0  0  0  0  0  0  0
    5.4812    7.5259  -10.3522 C   0  0  0  0  0  0  0  0  0  0  0  0
    1.2251    6.7261   -8.8060 N   0  0  0  0  0  0  0  0  0  0  0  0
    4.5447    5.6323  -11.4086 C   0  0  0  0  0  0  0  0  0  0  0  0
    4.4692    6.6065  -10.4461 C   0  0  0  0  0  0  0  0  0  0  0  0
    3.3336    6.6441   -8.1552 C   0  0  0  0  0  0  0  0  0  0  0  0
    4.5871    9.0249   -6.5149 C   0  0  0  0  0  0  0  0  0  0  0  0
    4.5057    6.5982   -7.3242 C   0  0  0  0  0  0  0  0  0  0  0  0
    5.6481    5.6051  -12.2637 C   0  0  0  0  0  0  0  0  0  0  0  0
    2.0253    6.6926   -7.7689 N   0  0  0  0  0  0  0  0  0  0  0  0
    3.3280    6.6485   -9.5481 C   0  0  0  0  0  0  0  0  0  0  0  0
    6.1547    7.1457   -5.9629 N   0  0  0  0  0  0  0  0  0  0  0  0
    6.2793    5.9046   -6.2565 O   0  0  0  0  0  0  0  0  0  0  0  0
  1  5  1  0
 13  1  2  0
  1 18  1  0
  2 12  1  0
 13  2  1  0
  2 17  2  0
  8  3  1  0
  3 16  2  0
  6  4  2  0
 14  4  1  0
  7  6  1  0
 10  7  2  0
 15  8  1  0
 10  9  1  0
  9 14  2  0
 16 10  1  0
 11 13  1  0
 11 15  2  0
 11 16  1  0
 17 18  1  0
M  END
$$$$
