
     RDKit          3D

 18 20  0  0  0  0  0  0  0  0999 V2000
   -3.1219    9.5768  -20.5235 C   0  0  0  0  0  0  0  0  0  0  0  0
   -5.2337    9.1938  -20.1034 C   0  0  0  0  0  0  0  0  0  0  0  0
   -3.4463    5.0301  -20.6688 C   0  0  0  0  0  0  0  0  0  0  0  0
   -2.6317    6.6240  -15.8221 N   0  0  0  0  0  0  0  0  0  0  0  0
   -1.6976    9.4928  -20.8751 C   0  0  0  0  0  0  0  0  0  0  0  0
   -3.6452    5.8595  -16.2257 C   0  0  0  0  0  0  0  0  0  0  0  0
   -3.9517    5.7024  -17.5532 C   0  0  0  0  0  0  0  0  0  0  0  0
   -3.7834    5.2935  -21.9352 N   0  0  0  0  0  0  0  0  0  0  0  0
   -2.1550    7.1352  -18.0986 C   0  0  0  0  0  0  0  0  0  0  0  0
   -3.2010    6.3454  -18.5025 C   0  0  0  0  0  0  0  0  0  0  0  0
   -3.8838    7.1945  -20.8160 C   0  0  0  0  0  0  0  0  0  0  0  0
   -6.5612    8.5886  -19.9116 C   0  0  0  0  0  0  0  0  0  0  0  0
   -4.0698    8.5840  -20.4979 C   0  0  0  0  0  0  0  0  0  0  0  0
   -1.8853    7.2614  -16.7345 C   0  0  0  0  0  0  0  0  0  0  0  0
   -4.0424    6.5752  -22.0220 N   0  0  0  0  0  0  0  0  0  0  0  0
   -3.4947    6.2031  -19.9182 C   0  0  0  0  0  0  0  0  0  0  0  0
   -4.9562   10.5167  -19.9057 N   0  0  0  0  0  0  0  0  0  0  0  0
   -3.7152   10.7114  -20.1586 O   0  0  0  0  0  0  0  0  0  0  0  0
  1  5  1  0
 13  1  2  0
  1 18  1  0
  2 12  1  0
 13  2  1  0
  2 17  2  0
  8  3  1  0
  3 16  2  0
  6  4  2  0
 14  4  1  0
  7  6  1  0
 10  7  2  0
 15  8  1  0
 10  9  1  0
  9 14  2  0
 16 10  1  0
 11 13  1  0
 11 15  2  0
 11 16  1  0
 17 18  1  0
M  END
$$$$
