
     RDKit          3D

 18 20  0  0  0  0  0  0  0  0999 V2000
   -5.6989    9.2264  -21.5790 C   0  0  0  0  0  0  0  0  0  0  0  0
   -6.5956    7.2319  -21.6153 C   0  0  0  0  0  0  0  0  0  0  0  0
   -3.6032    7.3676  -18.0732 C   0  0  0  0  0  0  0  0  0  0  0  0
   -0.6826    8.6325  -22.1387 N   0  0  0  0  0  0  0  0  0  0  0  0
   -4.9575   10.4533  -21.2559 C   0  0  0  0  0  0  0  0  0  0  0  0
   -1.6855    7.8290  -22.4893 C   0  0  0  0  0  0  0  0  0  0  0  0
   -2.7014    7.5158  -21.6229 C   0  0  0  0  0  0  0  0  0  0  0  0
   -4.8048    7.1643  -17.5241 N   0  0  0  0  0  0  0  0  0  0  0  0
   -1.6687    8.8670  -19.9838 C   0  0  0  0  0  0  0  0  0  0  0  0
   -2.6964    8.0384  -20.3560 C   0  0  0  0  0  0  0  0  0  0  0  0
   -5.1301    7.7326  -19.6330 C   0  0  0  0  0  0  0  0  0  0  0  0
   -7.0141    5.8525  -21.3199 C   0  0  0  0  0  0  0  0  0  0  0  0
   -5.7744    8.0478  -20.8788 C   0  0  0  0  0  0  0  0  0  0  0  0
   -0.6590    9.1539  -20.9043 C   0  0  0  0  0  0  0  0  0  0  0  0
   -5.7087    7.3805  -18.4479 N   0  0  0  0  0  0  0  0  0  0  0  0
   -3.7551    7.7302  -19.4101 C   0  0  0  0  0  0  0  0  0  0  0  0
   -6.9847    7.9332  -22.7211 N   0  0  0  0  0  0  0  0  0  0  0  0
   -6.4456    9.0947  -22.6733 O   0  0  0  0  0  0  0  0  0  0  0  0
  1  5  1  0
 13  1  2  0
  1 18  1  0
  2 12  1  0
 13  2  1  0
  2 17  2  0
  8  3  1  0
  3 16  2  0
  6  4  2  0
 14  4  1  0
  7  6  1  0
 10  7  2  0
 15  8  1  0
 10  9  1  0
  9 14  2  0
 16 10  1  0
 11 13  1  0
 11 15  2  0
 11 16  1  0
 17 18  1  0
M  END
$$$$
