
     RDKit          3D

 18 20  0  0  0  0  0  0  0  0999 V2000
   -5.3627    8.2501  -23.8164 C   0  0  0  0  0  0  0  0  0  0  0  0
   -3.9461    6.7225  -23.1510 C   0  0  0  0  0  0  0  0  0  0  0  0
   -3.6402    9.6422  -19.7483 C   0  0  0  0  0  0  0  0  0  0  0  0
   -5.9409    5.1481  -18.6691 N   0  0  0  0  0  0  0  0  0  0  0  0
   -6.1894    9.4525  -23.9901 C   0  0  0  0  0  0  0  0  0  0  0  0
   -6.4541    5.6825  -19.7761 C   0  0  0  0  0  0  0  0  0  0  0  0
   -5.9044    6.7899  -20.3696 C   0  0  0  0  0  0  0  0  0  0  0  0
   -3.1702   10.5232  -20.6370 N   0  0  0  0  0  0  0  0  0  0  0  0
   -4.2569    6.8319  -18.6777 C   0  0  0  0  0  0  0  0  0  0  0  0
   -4.7941    7.3735  -19.8175 C   0  0  0  0  0  0  0  0  0  0  0  0
   -4.0100    8.8250  -21.7714 C   0  0  0  0  0  0  0  0  0  0  0  0
   -2.9189    5.9452  -22.4397 C   0  0  0  0  0  0  0  0  0  0  0  0
   -4.4186    7.9767  -22.8578 C   0  0  0  0  0  0  0  0  0  0  0  0
   -4.8553    5.7037  -18.1134 C   0  0  0  0  0  0  0  0  0  0  0  0
   -3.3893   10.0390  -21.8348 N   0  0  0  0  0  0  0  0  0  0  0  0
   -4.1832    8.5471  -20.4175 C   0  0  0  0  0  0  0  0  0  0  0  0
   -4.6101    6.2841  -24.2614 N   0  0  0  0  0  0  0  0  0  0  0  0
   -5.4311    7.1970  -24.6280 O   0  0  0  0  0  0  0  0  0  0  0  0
  1  5  1  0
 13  1  2  0
  1 18  1  0
  2 12  1  0
 13  2  1  0
  2 17  2  0
  8  3  1  0
  3 16  2  0
  6  4  2  0
 14  4  1  0
  7  6  1  0
 10  7  2  0
 15  8  1  0
 10  9  1  0
  9 14  2  0
 16 10  1  0
 11 13  1  0
 11 15  2  0
 11 16  1  0
 17 18  1  0
M  END
$$$$
