
     RDKit          3D

 18 20  0  0  0  0  0  0  0  0999 V2000
   -8.8061   -0.3578  -22.1462 C   0  0  0  0  0  0  0  0  0  0  0  0
   -8.7608   -1.0690  -24.2139 C   0  0  0  0  0  0  0  0  0  0  0  0
   -4.3613   -0.5154  -22.9865 C   0  0  0  0  0  0  0  0  0  0  0  0
   -6.3854    4.2193  -23.4343 N   0  0  0  0  0  0  0  0  0  0  0  0
   -8.4920    0.0722  -20.7766 C   0  0  0  0  0  0  0  0  0  0  0  0
   -5.1389    3.7564  -23.5140 C   0  0  0  0  0  0  0  0  0  0  0  0
   -4.8530    2.4194  -23.4059 C   0  0  0  0  0  0  0  0  0  0  0  0
   -4.5201   -1.8394  -22.8935 N   0  0  0  0  0  0  0  0  0  0  0  0
   -7.1583    1.9881  -23.1264 C   0  0  0  0  0  0  0  0  0  0  0  0
   -5.8708    1.5228  -23.2100 C   0  0  0  0  0  0  0  0  0  0  0  0
   -6.5316   -0.9427  -23.0553 C   0  0  0  0  0  0  0  0  0  0  0  0
   -8.3656   -1.5691  -25.5401 C   0  0  0  0  0  0  0  0  0  0  0  0
   -7.9595   -0.7966  -23.1340 C   0  0  0  0  0  0  0  0  0  0  0  0
   -7.3950    3.3591  -23.2429 C   0  0  0  0  0  0  0  0  0  0  0  0
   -5.8053   -2.0920  -22.9342 N   0  0  0  0  0  0  0  0  0  0  0  0
   -5.6076    0.0990  -23.0912 C   0  0  0  0  0  0  0  0  0  0  0  0
  -10.0476   -0.7903  -23.8495 N   0  0  0  0  0  0  0  0  0  0  0  0
  -10.0436   -0.3768  -22.6367 O   0  0  0  0  0  0  0  0  0  0  0  0
  1  5  1  0
 13  1  2  0
  1 18  1  0
  2 12  1  0
 13  2  1  0
  2 17  2  0
  8  3  1  0
  3 16  2  0
  6  4  2  0
 14  4  1  0
  7  6  1  0
 10  7  2  0
 15  8  1  0
 10  9  1  0
  9 14  2  0
 16 10  1  0
 11 13  1  0
 11 15  2  0
 11 16  1  0
 17 18  1  0
M  END
$$$$
