
     RDKit          3D

 18 20  0  0  0  0  0  0  0  0999 V2000
   -5.8961    8.9350  -22.1067 C   0  0  0  0  0  0  0  0  0  0  0  0
   -5.9474    6.7496  -22.0399 C   0  0  0  0  0  0  0  0  0  0  0  0
   -1.6764    7.6303  -20.8236 C   0  0  0  0  0  0  0  0  0  0  0  0
   -4.8090    6.8256  -16.7931 N   0  0  0  0  0  0  0  0  0  0  0  0
   -5.5201   10.3555  -22.1020 C   0  0  0  0  0  0  0  0  0  0  0  0
   -3.7246    6.1524  -17.1741 C   0  0  0  0  0  0  0  0  0  0  0  0
   -3.1246    6.3700  -18.3880 C   0  0  0  0  0  0  0  0  0  0  0  0
   -1.5031    7.8856  -22.1242 N   0  0  0  0  0  0  0  0  0  0  0  0
   -4.7628    8.0042  -18.8618 C   0  0  0  0  0  0  0  0  0  0  0  0
   -3.6463    7.3049  -19.2436 C   0  0  0  0  0  0  0  0  0  0  0  0
   -3.6780    7.7962  -21.7529 C   0  0  0  0  0  0  0  0  0  0  0  0
   -5.6163    5.3190  -21.9446 C   0  0  0  0  0  0  0  0  0  0  0  0
   -5.1008    7.8260  -21.9567 C   0  0  0  0  0  0  0  0  0  0  0  0
   -5.3349    7.7442  -17.6151 C   0  0  0  0  0  0  0  0  0  0  0  0
   -2.6884    7.9837  -22.6741 N   0  0  0  0  0  0  0  0  0  0  0  0
   -3.0386    7.5638  -20.5375 C   0  0  0  0  0  0  0  0  0  0  0  0
   -7.2092    7.2353  -22.2347 N   0  0  0  0  0  0  0  0  0  0  0  0
   -7.1488    8.5147  -22.2695 O   0  0  0  0  0  0  0  0  0  0  0  0
  1  5  1  0
 13  1  2  0
  1 18  1  0
  2 12  1  0
 13  2  1  0
  2 17  2  0
  8  3  1  0
  3 16  2  0
  6  4  2  0
 14  4  1  0
  7  6  1  0
 10  7  2  0
 15  8  1  0
 10  9  1  0
  9 14  2  0
 16 10  1  0
 11 13  1  0
 11 15  2  0
 11 16  1  0
 17 18  1  0
M  END
$$$$
