
     RDKit          3D

 18 20  0  0  0  0  0  0  0  0999 V2000
   -4.9722    9.4023  -21.3848 C   0  0  0  0  0  0  0  0  0  0  0  0
   -5.1932    8.1206  -19.6265 C   0  0  0  0  0  0  0  0  0  0  0  0
   -1.6456    6.2106  -21.6508 C   0  0  0  0  0  0  0  0  0  0  0  0
   -6.0751    3.6178  -22.2055 N   0  0  0  0  0  0  0  0  0  0  0  0
   -4.5309   10.0801  -22.6116 C   0  0  0  0  0  0  0  0  0  0  0  0
   -6.2739    4.9152  -22.4323 C   0  0  0  0  0  0  0  0  0  0  0  0
   -5.2963    5.8498  -22.2050 C   0  0  0  0  0  0  0  0  0  0  0  0
   -0.9840    7.3230  -21.3169 N   0  0  0  0  0  0  0  0  0  0  0  0
   -3.8582    4.1167  -21.4932 C   0  0  0  0  0  0  0  0  0  0  0  0
   -4.0743    5.4502  -21.7304 C   0  0  0  0  0  0  0  0  0  0  0  0
   -3.1355    7.7191  -21.0166 C   0  0  0  0  0  0  0  0  0  0  0  0
   -5.0210    7.1166  -18.5646 C   0  0  0  0  0  0  0  0  0  0  0  0
   -4.3705    8.3801  -20.6933 C   0  0  0  0  0  0  0  0  0  0  0  0
   -4.8871    3.2062  -21.7413 C   0  0  0  0  0  0  0  0  0  0  0  0
   -1.8665    8.2160  -20.9414 N   0  0  0  0  0  0  0  0  0  0  0  0
   -3.0138    6.4105  -21.4778 C   0  0  0  0  0  0  0  0  0  0  0  0
   -6.2506    8.9819  -19.7059 N   0  0  0  0  0  0  0  0  0  0  0  0
   -6.0947    9.7185  -20.7427 O   0  0  0  0  0  0  0  0  0  0  0  0
  1  5  1  0
 13  1  2  0
  1 18  1  0
  2 12  1  0
 13  2  1  0
  2 17  2  0
  8  3  1  0
  3 16  2  0
  6  4  2  0
 14  4  1  0
  7  6  1  0
 10  7  2  0
 15  8  1  0
 10  9  1  0
  9 14  2  0
 16 10  1  0
 11 13  1  0
 11 15  2  0
 11 16  1  0
 17 18  1  0
M  END
$$$$
