
     RDKit          3D

 18 20  0  0  0  0  0  0  0  0999 V2000
    2.0694    6.8904  -10.0121 C   0  0  0  0  0  0  0  0  0  0  0  0
    3.0986    5.1022   -9.2867 C   0  0  0  0  0  0  0  0  0  0  0  0
    6.3513    7.8756  -11.0308 C   0  0  0  0  0  0  0  0  0  0  0  0
    3.4230    6.5399  -15.0667 N   0  0  0  0  0  0  0  0  0  0  0  0
    1.7025    8.2096  -10.5453 C   0  0  0  0  0  0  0  0  0  0  0  0
    2.9686    5.9085  -13.9854 C   0  0  0  0  0  0  0  0  0  0  0  0
    3.5005    6.1271  -12.7403 C   0  0  0  0  0  0  0  0  0  0  0  0
    6.5499    7.9440   -9.7107 N   0  0  0  0  0  0  0  0  0  0  0  0
    5.0063    7.6749  -13.6971 C   0  0  0  0  0  0  0  0  0  0  0  0
    4.5303    7.0190  -12.5907 C   0  0  0  0  0  0  0  0  0  0  0  0
    4.5857    6.9883  -10.0343 C   0  0  0  0  0  0  0  0  0  0  0  0
    4.0939    4.0989   -8.8769 C   0  0  0  0  0  0  0  0  0  0  0  0
    3.3161    6.3595   -9.7909 C   0  0  0  0  0  0  0  0  0  0  0  0
    4.4295    7.4159  -14.9419 C   0  0  0  0  0  0  0  0  0  0  0  0
    5.5043    7.4186   -9.1210 N   0  0  0  0  0  0  0  0  0  0  0  0
    5.1193    7.2774  -11.2880 C   0  0  0  0  0  0  0  0  0  0  0  0
    1.7470    4.9160   -9.2200 N   0  0  0  0  0  0  0  0  0  0  0  0
    1.1712    5.9768   -9.6502 O   0  0  0  0  0  0  0  0  0  0  0  0
  1  5  1  0
 13  1  2  0
  1 18  1  0
  2 12  1  0
 13  2  1  0
  2 17  2  0
  8  3  1  0
  3 16  2  0
  6  4  2  0
 14  4  1  0
  7  6  1  0
 10  7  2  0
 15  8  1  0
 10  9  1  0
  9 14  2  0
 16 10  1  0
 11 13  1  0
 11 15  2  0
 11 16  1  0
 17 18  1  0
M  END
$$$$
