
     RDKit          3D

 18 20  0  0  0  0  0  0  0  0999 V2000
    1.5060    7.3514   -8.5373 C   0  0  0  0  0  0  0  0  0  0  0  0
    2.2314    5.3457   -8.0536 C   0  0  0  0  0  0  0  0  0  0  0  0
    6.0746    7.6094   -8.8889 C   0  0  0  0  0  0  0  0  0  0  0  0
    4.2757    5.2163  -13.1011 N   0  0  0  0  0  0  0  0  0  0  0  0
    1.3576    8.7788   -8.8532 C   0  0  0  0  0  0  0  0  0  0  0  0
    5.3811    4.9561  -12.4048 C   0  0  0  0  0  0  0  0  0  0  0  0
    5.6157    5.5219  -11.1777 C   0  0  0  0  0  0  0  0  0  0  0  0
    5.8888    8.0641   -7.6457 N   0  0  0  0  0  0  0  0  0  0  0  0
    3.5518    6.6573  -11.3490 C   0  0  0  0  0  0  0  0  0  0  0  0
    4.6937    6.3820  -10.6409 C   0  0  0  0  0  0  0  0  0  0  0  0
    4.0013    7.1172   -8.2915 C   0  0  0  0  0  0  0  0  0  0  0  0
    3.0501    4.1644   -7.7381 C   0  0  0  0  0  0  0  0  0  0  0  0
    2.6488    6.6302   -8.2947 C   0  0  0  0  0  0  0  0  0  0  0  0
    3.3615    6.0547  -12.5939 C   0  0  0  0  0  0  0  0  0  0  0  0
    4.6611    7.7725   -7.2923 N   0  0  0  0  0  0  0  0  0  0  0  0
    4.9066    7.0005   -9.3437 C   0  0  0  0  0  0  0  0  0  0  0  0
    0.8692    5.3317   -8.1565 N   0  0  0  0  0  0  0  0  0  0  0  0
    0.4733    6.5169   -8.4399 O   0  0  0  0  0  0  0  0  0  0  0  0
  1  5  1  0
 13  1  2  0
  1 18  1  0
  2 12  1  0
 13  2  1  0
  2 17  2  0
  8  3  1  0
  3 16  2  0
  6  4  2  0
 14  4  1  0
  7  6  1  0
 10  7  2  0
 15  8  1  0
 10  9  1  0
  9 14  2  0
 16 10  1  0
 11 13  1  0
 11 15  2  0
 11 16  1  0
 17 18  1  0
M  END
$$$$
