
     RDKit          3D

 18 20  0  0  0  0  0  0  0  0999 V2000
   -3.1031    7.1046  -17.6803 C   0  0  0  0  0  0  0  0  0  0  0  0
   -1.6862    7.7290  -19.2248 C   0  0  0  0  0  0  0  0  0  0  0  0
   -5.6958    8.7256  -21.1023 C   0  0  0  0  0  0  0  0  0  0  0  0
   -4.0544    4.0231  -22.4600 N   0  0  0  0  0  0  0  0  0  0  0  0
   -4.2870    6.8408  -16.8507 C   0  0  0  0  0  0  0  0  0  0  0  0
   -3.9633    4.1832  -21.1407 C   0  0  0  0  0  0  0  0  0  0  0  0
   -4.1825    5.3966  -20.5402 C   0  0  0  0  0  0  0  0  0  0  0  0
   -5.6181    9.8003  -20.3113 N   0  0  0  0  0  0  0  0  0  0  0  0
   -4.6019    6.3312  -22.6683 C   0  0  0  0  0  0  0  0  0  0  0  0
   -4.5054    6.4843  -21.3088 C   0  0  0  0  0  0  0  0  0  0  0  0
   -4.0868    8.3642  -19.6265 C   0  0  0  0  0  0  0  0  0  0  0  0
   -1.0384    8.2892  -20.4214 C   0  0  0  0  0  0  0  0  0  0  0  0
   -3.0142    7.7627  -18.8819 C   0  0  0  0  0  0  0  0  0  0  0  0
   -4.3690    5.0742  -23.2295 C   0  0  0  0  0  0  0  0  0  0  0  0
   -4.6653    9.5859  -19.4376 N   0  0  0  0  0  0  0  0  0  0  0  0
   -4.7452    7.7856  -20.7091 C   0  0  0  0  0  0  0  0  0  0  0  0
   -1.0243    7.0612  -18.2338 N   0  0  0  0  0  0  0  0  0  0  0  0
   -1.8772    6.7083  -17.3450 O   0  0  0  0  0  0  0  0  0  0  0  0
  1  5  1  0
 13  1  2  0
  1 18  1  0
  2 12  1  0
 13  2  1  0
  2 17  2  0
  8  3  1  0
  3 16  2  0
  6  4  2  0
 14  4  1  0
  7  6  1  0
 10  7  2  0
 15  8  1  0
 10  9  1  0
  9 14  2  0
 16 10  1  0
 11 13  1  0
 11 15  2  0
 11 16  1  0
 17 18  1  0
M  END
$$$$
