
     RDKit          3D

 18 20  0  0  0  0  0  0  0  0999 V2000
   -4.8660    9.4119  -21.1517 C   0  0  0  0  0  0  0  0  0  0  0  0
   -6.0516    8.1455  -19.8198 C   0  0  0  0  0  0  0  0  0  0  0  0
   -3.0473    5.2746  -21.7250 C   0  0  0  0  0  0  0  0  0  0  0  0
   -0.7878    7.7408  -17.7867 N   0  0  0  0  0  0  0  0  0  0  0  0
   -3.9399    9.9575  -22.1536 C   0  0  0  0  0  0  0  0  0  0  0  0
   -0.3576    7.7577  -19.0473 C   0  0  0  0  0  0  0  0  0  0  0  0
   -1.1392    7.3222  -20.0867 C   0  0  0  0  0  0  0  0  0  0  0  0
   -4.0531    5.1605  -22.5979 N   0  0  0  0  0  0  0  0  0  0  0  0
   -2.8556    6.8314  -18.5403 C   0  0  0  0  0  0  0  0  0  0  0  0
   -2.4021    6.8534  -19.8344 C   0  0  0  0  0  0  0  0  0  0  0  0
   -4.4622    6.9338  -21.3473 C   0  0  0  0  0  0  0  0  0  0  0  0
   -6.6619    7.0213  -19.0926 C   0  0  0  0  0  0  0  0  0  0  0  0
   -5.0943    8.1040  -20.8017 C   0  0  0  0  0  0  0  0  0  0  0  0
   -2.0196    7.2862  -17.5187 C   0  0  0  0  0  0  0  0  0  0  0  0
   -4.8907    6.1430  -22.3739 N   0  0  0  0  0  0  0  0  0  0  0  0
   -3.2597    6.3842  -20.9091 C   0  0  0  0  0  0  0  0  0  0  0  0
   -6.3669    9.4582  -19.6106 N   0  0  0  0  0  0  0  0  0  0  0  0
   -5.6590   10.1749  -20.4024 O   0  0  0  0  0  0  0  0  0  0  0  0
  1  5  1  0
 13  1  2  0
  1 18  1  0
  2 12  1  0
 13  2  1  0
  2 17  2  0
  8  3  1  0
  3 16  2  0
  6  4  2  0
 14  4  1  0
  7  6  1  0
 10  7  2  0
 15  8  1  0
 10  9  1  0
  9 14  2  0
 16 10  1  0
 11 13  1  0
 11 15  2  0
 11 16  1  0
 17 18  1  0
M  END
$$$$
