
     RDKit          3D

 36 39  0  0  0  0  0  0  0  0999 V2000
   23.5505   -9.0677   -4.3090 N   0  0  0  0  0  0  0  0  0  0  0  0
   21.2731   -9.2779   -7.6907 C   0  0  0  0  0  0  0  0  0  0  0  0
   21.9395   -9.3749   -6.4973 C   0  0  0  0  0  0  0  0  0  0  0  0
   21.8671  -10.2760   -5.4545 C   0  0  0  0  0  0  0  0  0  0  0  0
   22.6999  -10.0897   -4.3587 C   0  0  0  0  0  0  0  0  0  0  0  0
   24.3824   -8.9529   -3.1226 C   0  0  0  0  0  0  0  0  0  0  0  0
   22.8348   -8.3269   -6.4094 C   0  0  0  0  0  0  0  0  0  0  0  0
   18.6840  -12.2426   -5.7146 C   0  0  0  0  0  0  0  0  0  0  0  0
   20.5174  -13.7590   -5.4793 C   0  0  0  0  0  0  0  0  0  0  0  0
   23.4200  -14.0330   -5.0848 C   0  0  0  0  0  0  0  0  0  0  0  0
   24.0199  -15.8821   -3.6472 C   0  0  0  0  0  0  0  0  0  0  0  0
   24.7701  -16.4391   -4.6615 C   0  0  0  0  0  0  0  0  0  0  0  0
   24.8476  -15.8043   -5.8753 C   0  0  0  0  0  0  0  0  0  0  0  0
   24.3148  -13.9883   -7.4306 C   0  0  0  0  0  0  0  0  0  0  0  0
   16.7166  -12.8756   -7.0480 C   0  0  0  0  0  0  0  0  0  0  0  0
   20.4074   -8.3955  -10.4112 N   0  0  0  0  0  0  0  0  0  0  0  0
   18.3772   -7.8728  -11.6173 C   0  0  0  0  0  0  0  0  0  0  0  0
   21.8125   -6.6025  -10.0912 O   0  0  0  0  0  0  0  0  0  0  0  0
   19.9034   -7.9569  -11.7020 C   0  0  0  0  0  0  0  0  0  0  0  0
   20.9376  -11.3894   -5.5131 C   0  0  0  0  0  0  0  0  0  0  0  0
   19.5854  -11.1990   -5.6567 C   0  0  0  0  0  0  0  0  0  0  0  0
   19.1650  -13.5316   -5.6241 C   0  0  0  0  0  0  0  0  0  0  0  0
   21.4121  -12.6806   -5.4232 C   0  0  0  0  0  0  0  0  0  0  0  0
   23.3475  -14.6759   -3.8706 C   0  0  0  0  0  0  0  0  0  0  0  0
   22.5328  -14.0492   -2.8041 C   0  0  0  0  0  0  0  0  0  0  0  0
   21.3406   -7.6661   -9.6554 C   0  0  0  0  0  0  0  0  0  0  0  0
   24.1712  -14.5959   -6.0924 C   0  0  0  0  0  0  0  0  0  0  0  0
   17.2284  -12.0615   -5.8683 C   0  0  1  0  0  0  0  0  0  0  0  0
   16.4496  -12.4160   -4.6339 C   0  0  0  0  0  0  0  0  0  0  0  0
   21.7595   -8.1557   -8.3538 C   0  0  0  0  0  0  0  0  0  0  0  0
   23.6447   -8.1886   -5.2885 C   0  0  0  0  0  0  0  0  0  0  0  0
   25.4097  -17.6084   -4.4137 F   0  0  0  0  0  0  0  0  0  0  0  0
   22.6920   -7.6217   -7.5452 N   0  0  0  0  0  0  0  0  0  0  0  0
   24.4375   -7.2420   -5.2343 O   0  0  0  0  0  0  0  0  0  0  0  0
   22.7598  -12.8637   -5.2803 O   0  0  0  0  0  0  0  0  0  0  0  0
   16.9564  -10.7089   -6.1583 O   0  0  0  0  0  0  0  0  0  0  0  0
  5  1  1  0
  1  6  1  0
 31  1  1  0
  2  3  1  0
 30  2  2  0
  3  4  1  0
  3  7  2  0
  4  5  2  0
  4 20  1  0
  7 31  1  0
  7 33  1  0
 21  8  2  0
  8 22  1  0
  8 28  1  0
  9 22  2  0
 23  9  1  0
 10 24  2  0
 10 27  1  0
 35 10  1  0
 11 12  2  0
 24 11  1  0
 13 12  1  0
 12 32  1  0
 27 13  2  0
 27 14  1  0
 28 15  1  6
 16 19  1  0
 26 16  1  0
 19 17  1  0
 26 18  2  0
 20 21  1  0
 20 23  2  0
 23 35  1  0
 24 25  1  0
 26 30  1  0
 28 29  1  0
 28 36  1  0
 30 33  1  0
 31 34  2  0
M  END
$$$$
