
     RDKit          3D

 36 39  0  0  0  0  0  0  0  0999 V2000
   23.8690   -8.8919   -4.1612 N   0  0  0  0  0  0  0  0  0  0  0  0
   21.6254   -9.6092   -7.4957 C   0  0  0  0  0  0  0  0  0  0  0  0
   22.3261   -9.5558   -6.3194 C   0  0  0  0  0  0  0  0  0  0  0  0
   22.5046  -10.4614   -5.2933 C   0  0  0  0  0  0  0  0  0  0  0  0
   23.2945  -10.0910   -4.2126 C   0  0  0  0  0  0  0  0  0  0  0  0
   24.6778   -8.5924   -2.9913 C   0  0  0  0  0  0  0  0  0  0  0  0
   22.9385   -8.3210   -6.2303 C   0  0  0  0  0  0  0  0  0  0  0  0
   22.0136  -14.1791   -5.2265 C   0  0  0  0  0  0  0  0  0  0  0  0
   19.9112  -13.1251   -5.6568 C   0  0  0  0  0  0  0  0  0  0  0  0
   18.4681  -10.5502   -5.7630 C   0  0  0  0  0  0  0  0  0  0  0  0
   16.4255  -10.1047   -4.5484 C   0  0  0  0  0  0  0  0  0  0  0  0
   15.6965  -10.2234   -5.7130 C   0  0  0  0  0  0  0  0  0  0  0  0
   16.3411  -10.5022   -6.8916 C   0  0  0  0  0  0  0  0  0  0  0  0
   18.3358  -10.9649   -8.2360 C   0  0  0  0  0  0  0  0  0  0  0  0
   22.3325  -16.1156   -3.7440 C   0  0  0  0  0  0  0  0  0  0  0  0
   21.5491   -6.7447   -9.9738 N   0  0  0  0  0  0  0  0  0  0  0  0
   21.0229   -4.7047  -11.1616 C   0  0  0  0  0  0  0  0  0  0  0  0
   20.4961   -8.7890  -10.0355 O   0  0  0  0  0  0  0  0  0  0  0  0
   20.9501   -6.2334  -11.1954 C   0  0  0  0  0  0  0  0  0  0  0  0
   21.8759  -11.7683   -5.3536 C   0  0  0  0  0  0  0  0  0  0  0  0
   22.5909  -12.9266   -5.1735 C   0  0  0  0  0  0  0  0  0  0  0  0
   20.6597  -14.2684   -5.4712 C   0  0  0  0  0  0  0  0  0  0  0  0
   20.5225  -11.8644   -5.5979 C   0  0  0  0  0  0  0  0  0  0  0  0
   17.8141  -10.2705   -4.5853 C   0  0  0  0  0  0  0  0  0  0  0  0
   18.6285  -10.1499   -3.3540 C   0  0  0  0  0  0  0  0  0  0  0  0
   21.2435   -8.0033   -9.4290 C   0  0  0  0  0  0  0  0  0  0  0  0
   17.7327  -10.6671   -6.9214 C   0  0  0  0  0  0  0  0  0  0  0  0
   22.7619  -15.4357   -5.0362 C   0  0  1  0  0  0  0  0  0  0  0  0
   22.6189  -16.3946   -6.1834 C   0  0  0  0  0  0  0  0  0  0  0  0
   21.8037   -8.3928   -8.1469 C   0  0  0  0  0  0  0  0  0  0  0  0
   23.7186   -8.0032   -5.1249 C   0  0  0  0  0  0  0  0  0  0  0  0
   14.3528  -10.0572   -5.6443 F   0  0  0  0  0  0  0  0  0  0  0  0
   22.5973   -7.6570   -7.3485 N   0  0  0  0  0  0  0  0  0  0  0  0
   24.2558   -6.8915   -5.0694 O   0  0  0  0  0  0  0  0  0  0  0  0
   19.8158  -10.7072   -5.7764 O   0  0  0  0  0  0  0  0  0  0  0  0
   24.1351  -15.1438   -4.9061 O   0  0  0  0  0  0  0  0  0  0  0  0
  5  1  1  0
  1  6  1  0
 31  1  1  0
  2  3  1  0
 30  2  2  0
  3  4  1  0
  3  7  2  0
  4  5  2  0
  4 20  1  0
  7 31  1  0
  7 33  1  0
 21  8  2  0
  8 22  1  0
  8 28  1  0
  9 22  2  0
 23  9  1  0
 10 24  2  0
 10 27  1  0
 35 10  1  0
 11 12  2  0
 24 11  1  0
 13 12  1  0
 12 32  1  0
 27 13  2  0
 27 14  1  0
 28 15  1  1
 16 19  1  0
 26 16  1  0
 19 17  1  0
 26 18  2  0
 20 21  1  0
 20 23  2  0
 23 35  1  0
 24 25  1  0
 26 30  1  0
 28 29  1  0
 28 36  1  0
 30 33  1  0
 31 34  2  0
M  END
$$$$
