
     RDKit          3D

 36 39  0  0  0  0  0  0  0  0999 V2000
   23.9776   -8.8482   -4.1121 N   0  0  0  0  0  0  0  0  0  0  0  0
   21.4351   -9.6236   -7.2107 C   0  0  0  0  0  0  0  0  0  0  0  0
   22.2523   -9.5542   -6.1130 C   0  0  0  0  0  0  0  0  0  0  0  0
   22.5849  -10.4679   -5.1335 C   0  0  0  0  0  0  0  0  0  0  0  0
   23.4640  -10.0755   -4.1324 C   0  0  0  0  0  0  0  0  0  0  0  0
   24.8888   -8.5271   -3.0261 C   0  0  0  0  0  0  0  0  0  0  0  0
   22.8057   -8.2900   -6.0583 C   0  0  0  0  0  0  0  0  0  0  0  0
   22.2996  -14.2048   -5.2774 C   0  0  0  0  0  0  0  0  0  0  0  0
   20.1077  -13.2637   -5.1158 C   0  0  0  0  0  0  0  0  0  0  0  0
   18.5898  -10.7071   -5.4160 C   0  0  0  0  0  0  0  0  0  0  0  0
   16.3174  -10.0043   -4.9824 C   0  0  0  0  0  0  0  0  0  0  0  0
   15.9451  -10.3937   -6.2519 C   0  0  0  0  0  0  0  0  0  0  0  0
   16.8806  -10.9342   -7.0975 C   0  0  0  0  0  0  0  0  0  0  0  0
   19.1432  -11.6841   -7.6621 C   0  0  0  0  0  0  0  0  0  0  0  0
   23.4304  -15.9675   -3.9875 C   0  0  0  0  0  0  0  0  0  0  0  0
   20.8782   -6.6935   -9.5464 N   0  0  0  0  0  0  0  0  0  0  0  0
   21.1941   -5.3628  -11.5411 C   0  0  0  0  0  0  0  0  0  0  0  0
   20.0657   -8.8434   -9.6430 O   0  0  0  0  0  0  0  0  0  0  0  0
   20.2111   -6.2318  -10.7523 C   0  0  0  0  0  0  0  0  0  0  0  0
   22.0221  -11.8057   -5.1595 C   0  0  0  0  0  0  0  0  0  0  0  0
   22.8133  -12.9241   -5.2511 C   0  0  0  0  0  0  0  0  0  0  0  0
   20.9320  -14.3655   -5.2086 C   0  0  0  0  0  0  0  0  0  0  0  0
   20.6555  -11.9730   -5.0910 C   0  0  0  0  0  0  0  0  0  0  0  0
   17.6456  -10.1660   -4.5742 C   0  0  0  0  0  0  0  0  0  0  0  0
   18.0806   -9.7589   -3.2181 C   0  0  0  0  0  0  0  0  0  0  0  0
   20.7684   -8.0049   -9.0540 C   0  0  0  0  0  0  0  0  0  0  0  0
   18.2098  -11.0935   -6.6821 C   0  0  0  0  0  0  0  0  0  0  0  0
   23.1301  -15.4197   -5.3754 C   0  0  1  0  0  0  0  0  0  0  0  0
   22.5137  -16.4970   -6.2213 C   0  0  0  0  0  0  0  0  0  0  0  0
   21.4802   -8.3874   -7.8472 C   0  0  0  0  0  0  0  0  0  0  0  0
   23.6805   -7.9510   -5.0330 C   0  0  0  0  0  0  0  0  0  0  0  0
   14.6507  -10.2239   -6.6174 F   0  0  0  0  0  0  0  0  0  0  0  0
   22.3142   -7.6247   -7.1183 N   0  0  0  0  0  0  0  0  0  0  0  0
   24.1620   -6.8131   -5.0068 O   0  0  0  0  0  0  0  0  0  0  0  0
   19.8728  -10.8552   -4.9999 O   0  0  0  0  0  0  0  0  0  0  0  0
   24.3698  -15.0894   -5.9598 O   0  0  0  0  0  0  0  0  0  0  0  0
  5  1  1  0
  1  6  1  0
 31  1  1  0
  2  3  1  0
 30  2  2  0
  3  4  1  0
  3  7  2  0
  4  5  2  0
  4 20  1  0
  7 31  1  0
  7 33  1  0
 21  8  2  0
  8 22  1  0
  8 28  1  0
  9 22  2  0
 23  9  1  0
 10 24  2  0
 10 27  1  0
 35 10  1  0
 11 12  2  0
 24 11  1  0
 13 12  1  0
 12 32  1  0
 27 13  2  0
 27 14  1  0
 28 15  1  1
 16 19  1  0
 26 16  1  0
 19 17  1  0
 26 18  2  0
 20 21  1  0
 20 23  2  0
 23 35  1  0
 24 25  1  0
 26 30  1  0
 28 29  1  0
 28 36  1  0
 30 33  1  0
 31 34  2  0
M  END
$$$$
