
     RDKit          3D

 36 39  0  0  0  0  0  0  0  0999 V2000
   24.5304   -8.7879   -4.6851 N   0  0  0  0  0  0  0  0  0  0  0  0
   20.8301   -9.2499   -6.3468 C   0  0  0  0  0  0  0  0  0  0  0  0
   22.0653   -9.2946   -5.7554 C   0  0  0  0  0  0  0  0  0  0  0  0
   22.8085  -10.3243   -5.2150 C   0  0  0  0  0  0  0  0  0  0  0  0
   24.0563  -10.0312   -4.6800 C   0  0  0  0  0  0  0  0  0  0  0  0
   25.8454   -8.5760   -4.1033 C   0  0  0  0  0  0  0  0  0  0  0  0
   22.5910   -8.0175   -5.7424 C   0  0  0  0  0  0  0  0  0  0  0  0
   22.4267  -13.9871   -4.5038 C   0  0  0  0  0  0  0  0  0  0  0  0
   20.6329  -13.2786   -5.9167 C   0  0  0  0  0  0  0  0  0  0  0  0
   19.2855  -10.9571   -7.1458 C   0  0  0  0  0  0  0  0  0  0  0  0
   17.8517  -10.9895   -9.0923 C   0  0  0  0  0  0  0  0  0  0  0  0
   16.7361  -10.9569   -8.2823 C   0  0  0  0  0  0  0  0  0  0  0  0
   16.8880  -10.9247   -6.9191 C   0  0  0  0  0  0  0  0  0  0  0  0
   18.2284  -10.8888   -4.8691 C   0  0  0  0  0  0  0  0  0  0  0  0
   24.1439  -15.7433   -4.6323 C   0  0  0  0  0  0  0  0  0  0  0  0
   18.2730   -8.2435   -7.5313 N   0  0  0  0  0  0  0  0  0  0  0  0
   16.0670   -8.9871   -8.1870 C   0  0  0  0  0  0  0  0  0  0  0  0
   19.3788   -6.2406   -7.7705 O   0  0  0  0  0  0  0  0  0  0  0  0
   17.0630   -7.8250   -8.2191 C   0  0  0  0  0  0  0  0  0  0  0  0
   22.2872  -11.6791   -5.2115 C   0  0  0  0  0  0  0  0  0  0  0  0
   22.9048  -12.6924   -4.5208 C   0  0  0  0  0  0  0  0  0  0  0  0
   21.2787  -14.2726   -5.2119 C   0  0  0  0  0  0  0  0  0  0  0  0
   21.1398  -11.9710   -5.9175 C   0  0  0  0  0  0  0  0  0  0  0  0
   19.1245  -10.9893   -8.5118 C   0  0  0  0  0  0  0  0  0  0  0  0
   20.3444  -11.0237   -9.3511 C   0  0  0  0  0  0  0  0  0  0  0  0
   19.3946   -7.4141   -7.3625 C   0  0  0  0  0  0  0  0  0  0  0  0
   18.1663  -10.9247   -6.3440 C   0  0  0  0  0  0  0  0  0  0  0  0
   23.0735  -15.0905   -3.7694 C   0  0  1  0  0  0  0  0  0  0  0  0
   23.6711  -14.6651   -2.4587 C   0  0  0  0  0  0  0  0  0  0  0  0
   20.5837   -7.9287   -6.7063 C   0  0  0  0  0  0  0  0  0  0  0  0
   23.8457   -7.7810   -5.1937 C   0  0  0  0  0  0  0  0  0  0  0  0
   15.5169  -10.9580   -8.8752 F   0  0  0  0  0  0  0  0  0  0  0  0
   21.6677   -7.2312   -6.3230 N   0  0  0  0  0  0  0  0  0  0  0  0
   24.2935   -6.6290   -5.1944 O   0  0  0  0  0  0  0  0  0  0  0  0
   20.5292  -10.9575   -6.6034 O   0  0  0  0  0  0  0  0  0  0  0  0
   22.1153  -16.0854   -3.4870 O   0  0  0  0  0  0  0  0  0  0  0  0
  5  1  1  0
  1  6  1  0
 31  1  1  0
  2  3  1  0
 30  2  2  0
  3  4  1  0
  3  7  2  0
  4  5  2  0
  4 20  1  0
  7 31  1  0
  7 33  1  0
 21  8  2  0
  8 22  1  0
  8 28  1  0
  9 22  2  0
 23  9  1  0
 10 24  2  0
 10 27  1  0
 35 10  1  0
 11 12  2  0
 24 11  1  0
 13 12  1  0
 12 32  1  0
 27 13  2  0
 27 14  1  0
 28 15  1  6
 16 19  1  0
 26 16  1  0
 19 17  1  0
 26 18  2  0
 20 21  1  0
 20 23  2  0
 23 35  1  0
 24 25  1  0
 26 30  1  0
 28 29  1  0
 28 36  1  0
 30 33  1  0
 31 34  2  0
M  END
$$$$
