
     RDKit          3D

 36 39  0  0  0  0  0  0  0  0999 V2000
   23.9441   -8.7839   -4.0954 N   0  0  0  0  0  0  0  0  0  0  0  0
   21.6879   -9.5569   -7.4089 C   0  0  0  0  0  0  0  0  0  0  0  0
   22.3983   -9.4861   -6.2393 C   0  0  0  0  0  0  0  0  0  0  0  0
   22.6102  -10.3875   -5.2160 C   0  0  0  0  0  0  0  0  0  0  0  0
   23.4006   -9.9975   -4.1425 C   0  0  0  0  0  0  0  0  0  0  0  0
   24.7562   -8.4643   -2.9331 C   0  0  0  0  0  0  0  0  0  0  0  0
   22.9792   -8.2359   -6.1549 C   0  0  0  0  0  0  0  0  0  0  0  0
   22.2234  -14.1181   -5.1899 C   0  0  0  0  0  0  0  0  0  0  0  0
   20.0770  -13.1164   -5.5148 C   0  0  0  0  0  0  0  0  0  0  0  0
   18.5586  -10.5937   -5.6118 C   0  0  0  0  0  0  0  0  0  0  0  0
   16.4710  -10.2162   -4.4519 C   0  0  0  0  0  0  0  0  0  0  0  0
   15.7764  -10.3700   -5.6333 C   0  0  0  0  0  0  0  0  0  0  0  0
   16.4603  -10.6327   -6.7933 C   0  0  0  0  0  0  0  0  0  0  0  0
   18.5040  -11.0300   -8.0840 C   0  0  0  0  0  0  0  0  0  0  0  0
   23.9310  -15.5339   -6.2525 C   0  0  0  0  0  0  0  0  0  0  0  0
   20.4451   -8.8770  -10.0387 N   0  0  0  0  0  0  0  0  0  0  0  0
   19.2956   -9.8989  -11.9052 C   0  0  0  0  0  0  0  0  0  0  0  0
   21.4609   -6.8270   -9.7991 O   0  0  0  0  0  0  0  0  0  0  0  0
   19.8400   -8.5895  -11.3285 C   0  0  0  0  0  0  0  0  0  0  0  0
   22.0151  -11.7104   -5.2714 C   0  0  0  0  0  0  0  0  0  0  0  0
   22.7683  -12.8509   -5.1404 C   0  0  0  0  0  0  0  0  0  0  0  0
   20.8633  -14.2412   -5.3794 C   0  0  0  0  0  0  0  0  0  0  0  0
   20.6558  -11.8402   -5.4606 C   0  0  0  0  0  0  0  0  0  0  0  0
   17.8653  -10.3304   -4.4529 C   0  0  0  0  0  0  0  0  0  0  0  0
   18.6435  -10.1712   -3.2027 C   0  0  0  0  0  0  0  0  0  0  0  0
   21.2457   -7.9601   -9.3368 C   0  0  0  0  0  0  0  0  0  0  0  0
   17.8574  -10.7459   -6.7872 C   0  0  0  0  0  0  0  0  0  0  0  0
   23.0129  -15.3562   -5.0517 C   0  0  1  0  0  0  0  0  0  0  0  0
   23.8200  -15.4107   -3.7861 C   0  0  0  0  0  0  0  0  0  0  0  0
   21.8282   -8.3358   -8.0606 C   0  0  0  0  0  0  0  0  0  0  0  0
   23.7614   -7.8987   -5.0568 C   0  0  0  0  0  0  0  0  0  0  0  0
   14.4261  -10.2535   -5.5992 F   0  0  0  0  0  0  0  0  0  0  0  0
   22.6100   -7.5802   -7.2691 N   0  0  0  0  0  0  0  0  0  0  0  0
   24.2700   -6.7734   -5.0053 O   0  0  0  0  0  0  0  0  0  0  0  0
   19.9111  -10.7006   -5.5905 O   0  0  0  0  0  0  0  0  0  0  0  0
   22.1412  -16.4641   -5.0379 O   0  0  0  0  0  0  0  0  0  0  0  0
  5  1  1  0
  1  6  1  0
 31  1  1  0
  2  3  1  0
 30  2  2  0
  3  4  1  0
  3  7  2  0
  4  5  2  0
  4 20  1  0
  7 31  1  0
  7 33  1  0
 21  8  2  0
  8 22  1  0
  8 28  1  0
  9 22  2  0
 23  9  1  0
 10 24  2  0
 10 27  1  0
 35 10  1  0
 11 12  2  0
 24 11  1  0
 13 12  1  0
 12 32  1  0
 27 13  2  0
 27 14  1  0
 28 15  1  6
 16 19  1  0
 26 16  1  0
 19 17  1  0
 26 18  2  0
 20 21  1  0
 20 23  2  0
 23 35  1  0
 24 25  1  0
 26 30  1  0
 28 29  1  0
 28 36  1  0
 30 33  1  0
 31 34  2  0
M  END
$$$$
