
     RDKit          3D

 36 39  0  0  0  0  0  0  0  0999 V2000
   23.9576   -8.8940   -4.4442 N   0  0  0  0  0  0  0  0  0  0  0  0
   21.3291   -9.1892   -7.5541 C   0  0  0  0  0  0  0  0  0  0  0  0
   22.1200   -9.2556   -6.4371 C   0  0  0  0  0  0  0  0  0  0  0  0
   22.1596  -10.1271   -5.3677 C   0  0  0  0  0  0  0  0  0  0  0  0
   23.1056   -9.9137   -4.3735 C   0  0  0  0  0  0  0  0  0  0  0  0
   24.9124   -8.7495   -3.3579 C   0  0  0  0  0  0  0  0  0  0  0  0
   23.0205   -8.2091   -6.4753 C   0  0  0  0  0  0  0  0  0  0  0  0
   18.9653  -12.0874   -5.2210 C   0  0  0  0  0  0  0  0  0  0  0  0
   20.8119  -13.6046   -5.1571 C   0  0  0  0  0  0  0  0  0  0  0  0
   23.7414  -13.8722   -5.0367 C   0  0  0  0  0  0  0  0  0  0  0  0
   24.7356  -15.8904   -5.9223 C   0  0  0  0  0  0  0  0  0  0  0  0
   25.1350  -16.2604   -4.6552 C   0  0  0  0  0  0  0  0  0  0  0  0
   24.8434  -15.4492   -3.5879 C   0  0  0  0  0  0  0  0  0  0  0  0
   23.8769  -13.4436   -2.5662 C   0  0  0  0  0  0  0  0  0  0  0  0
   16.8718  -12.6446   -6.3856 C   0  0  0  0  0  0  0  0  0  0  0  0
   20.1157   -8.3296  -10.1447 N   0  0  0  0  0  0  0  0  0  0  0  0
   20.1242   -8.8726  -12.5015 C   0  0  0  0  0  0  0  0  0  0  0  0
   21.6631   -6.6278  -10.1123 O   0  0  0  0  0  0  0  0  0  0  0  0
   19.5263   -7.9661  -11.4226 C   0  0  0  0  0  0  0  0  0  0  0  0
   21.2281  -11.2381   -5.2946 C   0  0  0  0  0  0  0  0  0  0  0  0
   19.8686  -11.0461   -5.2898 C   0  0  0  0  0  0  0  0  0  0  0  0
   19.4520  -13.3757   -5.1543 C   0  0  0  0  0  0  0  0  0  0  0  0
   21.7084  -12.5286   -5.2278 C   0  0  0  0  0  0  0  0  0  0  0  0
   24.0378  -14.6913   -6.1017 C   0  0  0  0  0  0  0  0  0  0  0  0
   23.5936  -14.2627   -7.4481 C   0  0  0  0  0  0  0  0  0  0  0  0
   21.1861   -7.6328   -9.5590 C   0  0  0  0  0  0  0  0  0  0  0  0
   24.1438  -14.2490   -3.7747 C   0  0  0  0  0  0  0  0  0  0  0  0
   17.5018  -11.9045   -5.2144 C   0  0  1  0  0  0  0  0  0  0  0  0
   16.8521  -12.3408   -3.9325 C   0  0  0  0  0  0  0  0  0  0  0  0
   21.7422   -8.0878   -8.2968 C   0  0  0  0  0  0  0  0  0  0  0  0
   23.9465   -8.0428   -5.4524 C   0  0  0  0  0  0  0  0  0  0  0  0
   25.8094  -17.4280   -4.5144 F   0  0  0  0  0  0  0  0  0  0  0  0
   22.7569   -7.5352   -7.6085 N   0  0  0  0  0  0  0  0  0  0  0  0
   24.7414   -7.0982   -5.5105 O   0  0  0  0  0  0  0  0  0  0  0  0
   23.0635  -12.7133   -5.2330 O   0  0  0  0  0  0  0  0  0  0  0  0
   17.2035  -10.5376   -5.3885 O   0  0  0  0  0  0  0  0  0  0  0  0
  5  1  1  0
  1  6  1  0
 31  1  1  0
  2  3  1  0
 30  2  2  0
  3  4  1  0
  3  7  2  0
  4  5  2  0
  4 20  1  0
  7 31  1  0
  7 33  1  0
 21  8  2  0
  8 22  1  0
  8 28  1  0
  9 22  2  0
 23  9  1  0
 10 24  2  0
 10 27  1  0
 35 10  1  0
 11 12  2  0
 24 11  1  0
 13 12  1  0
 12 32  1  0
 27 13  2  0
 27 14  1  0
 28 15  1  6
 16 19  1  0
 26 16  1  0
 19 17  1  0
 26 18  2  0
 20 21  1  0
 20 23  2  0
 23 35  1  0
 24 25  1  0
 26 30  1  0
 28 29  1  0
 28 36  1  0
 30 33  1  0
 31 34  2  0
M  END
$$$$
