
     RDKit          3D

 36 39  0  0  0  0  0  0  0  0999 V2000
   24.3020   -9.0074   -4.1015 N   0  0  0  0  0  0  0  0  0  0  0  0
   21.8933   -9.6789   -7.3287 C   0  0  0  0  0  0  0  0  0  0  0  0
   22.6504   -9.6407   -6.1872 C   0  0  0  0  0  0  0  0  0  0  0  0
   22.8688  -10.5552   -5.1769 C   0  0  0  0  0  0  0  0  0  0  0  0
   23.7135  -10.2004   -4.1331 C   0  0  0  0  0  0  0  0  0  0  0  0
   25.1692   -8.7241   -2.9700 C   0  0  0  0  0  0  0  0  0  0  0  0
   23.2789   -8.4127   -6.1195 C   0  0  0  0  0  0  0  0  0  0  0  0
   22.3379  -14.2666   -5.0718 C   0  0  0  0  0  0  0  0  0  0  0  0
   20.2398  -13.1924   -5.4723 C   0  0  0  0  0  0  0  0  0  0  0  0
   18.8228  -10.6181   -5.6738 C   0  0  0  0  0  0  0  0  0  0  0  0
   16.7179  -10.1358   -4.5864 C   0  0  0  0  0  0  0  0  0  0  0  0
   16.0529  -10.2916   -5.7845 C   0  0  0  0  0  0  0  0  0  0  0  0
   16.7601  -10.6069   -6.9171 C   0  0  0  0  0  0  0  0  0  0  0  0
   18.8243  -11.1103   -8.1362 C   0  0  0  0  0  0  0  0  0  0  0  0
   24.3804  -15.2752   -4.1442 C   0  0  0  0  0  0  0  0  0  0  0  0
   20.5943   -8.9476   -9.9173 N   0  0  0  0  0  0  0  0  0  0  0  0
   19.8062   -9.9928  -11.9510 C   0  0  0  0  0  0  0  0  0  0  0  0
   21.6567   -6.9206   -9.6850 O   0  0  0  0  0  0  0  0  0  0  0  0
   20.0191   -8.6639  -11.2215 C   0  0  0  0  0  0  0  0  0  0  0  0
   22.2246  -11.8555   -5.2154 C   0  0  0  0  0  0  0  0  0  0  0  0
   22.9299  -13.0203   -5.0391 C   0  0  0  0  0  0  0  0  0  0  0  0
   20.9788  -14.3426   -5.2912 C   0  0  0  0  0  0  0  0  0  0  0  0
   20.8660  -11.9382   -5.4344 C   0  0  0  0  0  0  0  0  0  0  0  0
   18.1062  -10.3018   -4.5427 C   0  0  0  0  0  0  0  0  0  0  0  0
   18.8528  -10.1422   -3.2735 C   0  0  0  0  0  0  0  0  0  0  0  0
   21.4352   -8.0556   -9.2307 C   0  0  0  0  0  0  0  0  0  0  0  0
   18.1512  -10.7718   -6.8662 C   0  0  0  0  0  0  0  0  0  0  0  0
   23.0755  -15.5300   -4.8851 C   0  0  1  0  0  0  0  0  0  0  0  0
   22.2826  -16.5828   -4.1647 C   0  0  0  0  0  0  0  0  0  0  0  0
   22.0525   -8.4597   -7.9797 C   0  0  0  0  0  0  0  0  0  0  0  0
   24.1145   -8.1104   -5.0510 C   0  0  0  0  0  0  0  0  0  0  0  0
   14.7076  -10.1241   -5.7940 F   0  0  0  0  0  0  0  0  0  0  0  0
   22.8910   -7.7375   -7.2156 N   0  0  0  0  0  0  0  0  0  0  0  0
   24.6650   -7.0045   -5.0141 O   0  0  0  0  0  0  0  0  0  0  0  0
   20.1691  -10.7746   -5.6092 O   0  0  0  0  0  0  0  0  0  0  0  0
   23.4198  -16.0580   -6.1462 O   0  0  0  0  0  0  0  0  0  0  0  0
  5  1  1  0
  1  6  1  0
 31  1  1  0
  2  3  1  0
 30  2  2  0
  3  4  1  0
  3  7  2  0
  4  5  2  0
  4 20  1  0
  7 31  1  0
  7 33  1  0
 21  8  2  0
  8 22  1  0
  8 28  1  0
  9 22  2  0
 23  9  1  0
 10 24  2  0
 10 27  1  0
 35 10  1  0
 11 12  2  0
 24 11  1  0
 13 12  1  0
 12 32  1  0
 27 13  2  0
 27 14  1  0
 28 15  1  1
 16 19  1  0
 26 16  1  0
 19 17  1  0
 26 18  2  0
 20 21  1  0
 20 23  2  0
 23 35  1  0
 24 25  1  0
 26 30  1  0
 28 29  1  0
 28 36  1  0
 30 33  1  0
 31 34  2  0
M  END
$$$$
