
     RDKit          3D

 36 39  0  0  0  0  0  0  0  0999 V2000
   23.5295   -8.8894   -4.5357 N   0  0  0  0  0  0  0  0  0  0  0  0
   21.4367   -8.9593   -8.0403 C   0  0  0  0  0  0  0  0  0  0  0  0
   22.0472   -9.1117   -6.8231 C   0  0  0  0  0  0  0  0  0  0  0  0
   21.9699  -10.0897   -5.8523 C   0  0  0  0  0  0  0  0  0  0  0  0
   22.7365   -9.9447   -4.7032 C   0  0  0  0  0  0  0  0  0  0  0  0
   24.2943   -8.8224   -3.3016 C   0  0  0  0  0  0  0  0  0  0  0  0
   22.8814   -8.0312   -6.6132 C   0  0  0  0  0  0  0  0  0  0  0  0
   19.0276  -12.2073   -6.8142 C   0  0  0  0  0  0  0  0  0  0  0  0
   20.6866  -13.5973   -5.7986 C   0  0  0  0  0  0  0  0  0  0  0  0
   23.2704  -13.6581   -4.3805 C   0  0  0  0  0  0  0  0  0  0  0  0
   23.4173  -15.0220   -2.3896 C   0  0  0  0  0  0  0  0  0  0  0  0
   24.3230  -15.8531   -3.0149 C   0  0  0  0  0  0  0  0  0  0  0  0
   24.7012  -15.5940   -4.3080 C   0  0  0  0  0  0  0  0  0  0  0  0
   24.6423  -14.2961   -6.3846 C   0  0  0  0  0  0  0  0  0  0  0  0
   16.7835  -11.2213   -6.6112 C   0  0  0  0  0  0  0  0  0  0  0  0
   20.6621   -7.9213  -10.7333 N   0  0  0  0  0  0  0  0  0  0  0  0
   19.7621   -8.6933  -12.8412 C   0  0  0  0  0  0  0  0  0  0  0  0
   21.9555   -6.0917  -10.2126 O   0  0  0  0  0  0  0  0  0  0  0  0
   20.3363   -7.4934  -12.0835 C   0  0  0  0  0  0  0  0  0  0  0  0
   21.1034  -11.2392   -6.0393 C   0  0  0  0  0  0  0  0  0  0  0  0
   19.8673  -11.1282   -6.6266 C   0  0  0  0  0  0  0  0  0  0  0  0
   19.4508  -13.4499   -6.3925 C   0  0  0  0  0  0  0  0  0  0  0  0
   21.5207  -12.4843   -5.6198 C   0  0  0  0  0  0  0  0  0  0  0  0
   22.8963  -13.9249   -3.0837 C   0  0  0  0  0  0  0  0  0  0  0  0
   21.9218  -13.0115   -2.4435 C   0  0  0  0  0  0  0  0  0  0  0  0
   21.5179   -7.2058   -9.8790 C   0  0  0  0  0  0  0  0  0  0  0  0
   24.1753  -14.4929   -4.9977 C   0  0  0  0  0  0  0  0  0  0  0  0
   17.6966  -12.1113   -7.4423 C   0  0  1  0  0  0  0  0  0  0  0  0
   17.7397  -11.6097   -8.8574 C   0  0  0  0  0  0  0  0  0  0  0  0
   21.8965   -7.7692   -8.5951 C   0  0  0  0  0  0  0  0  0  0  0  0
   23.6264   -7.9370   -5.4438 C   0  0  0  0  0  0  0  0  0  0  0  0
   24.8095  -16.9078   -2.3155 F   0  0  0  0  0  0  0  0  0  0  0  0
   22.7588   -7.2520   -7.7020 N   0  0  0  0  0  0  0  0  0  0  0  0
   24.3654   -6.9600   -5.2804 O   0  0  0  0  0  0  0  0  0  0  0  0
   22.7529  -12.5884   -5.0355 O   0  0  0  0  0  0  0  0  0  0  0  0
   17.1030  -13.3897   -7.4714 O   0  0  0  0  0  0  0  0  0  0  0  0
  5  1  1  0
  1  6  1  0
 31  1  1  0
  2  3  1  0
 30  2  2  0
  3  4  1  0
  3  7  2  0
  4  5  2  0
  4 20  1  0
  7 31  1  0
  7 33  1  0
 21  8  2  0
  8 22  1  0
  8 28  1  0
  9 22  2  0
 23  9  1  0
 10 24  2  0
 10 27  1  0
 35 10  1  0
 11 12  2  0
 24 11  1  0
 13 12  1  0
 12 32  1  0
 27 13  2  0
 27 14  1  0
 28 15  1  1
 16 19  1  0
 26 16  1  0
 19 17  1  0
 26 18  2  0
 20 21  1  0
 20 23  2  0
 23 35  1  0
 24 25  1  0
 26 30  1  0
 28 29  1  0
 28 36  1  0
 30 33  1  0
 31 34  2  0
M  END
$$$$
