
     RDKit          3D

 36 39  0  0  0  0  0  0  0  0999 V2000
   24.2247   -8.5195   -4.1685 N   0  0  0  0  0  0  0  0  0  0  0  0
   21.8742   -9.3211   -7.4088 C   0  0  0  0  0  0  0  0  0  0  0  0
   22.6133   -9.2381   -6.2580 C   0  0  0  0  0  0  0  0  0  0  0  0
   22.8285  -10.1186   -5.2173 C   0  0  0  0  0  0  0  0  0  0  0  0
   23.6525   -9.7208   -4.1724 C   0  0  0  0  0  0  0  0  0  0  0  0
   25.0709   -8.1904   -3.0336 C   0  0  0  0  0  0  0  0  0  0  0  0
   23.2245   -8.0002   -6.2185 C   0  0  0  0  0  0  0  0  0  0  0  0
   22.3660  -13.8405   -5.2454 C   0  0  0  0  0  0  0  0  0  0  0  0
   20.2181  -12.7905   -5.2298 C   0  0  0  0  0  0  0  0  0  0  0  0
   18.7520  -10.2402   -5.3298 C   0  0  0  0  0  0  0  0  0  0  0  0
   16.7851  -10.0374   -6.7213 C   0  0  0  0  0  0  0  0  0  0  0  0
   15.9867   -9.9712   -5.5987 C   0  0  0  0  0  0  0  0  0  0  0  0
   16.5595  -10.0383   -4.3538 C   0  0  0  0  0  0  0  0  0  0  0  0
   18.4708  -10.2369   -2.8346 C   0  0  0  0  0  0  0  0  0  0  0  0
   23.7891  -15.3027   -6.6188 C   0  0  0  0  0  0  0  0  0  0  0  0
   20.6461   -8.7037  -10.0618 N   0  0  0  0  0  0  0  0  0  0  0  0
   19.2027   -9.6616  -11.7495 C   0  0  0  0  0  0  0  0  0  0  0  0
   21.6002   -6.6235   -9.8296 O   0  0  0  0  0  0  0  0  0  0  0  0
   20.0441   -8.4439  -11.3589 C   0  0  0  0  0  0  0  0  0  0  0  0
   22.2021  -11.4281   -5.2256 C   0  0  0  0  0  0  0  0  0  0  0  0
   22.9406  -12.5856   -5.2373 C   0  0  0  0  0  0  0  0  0  0  0  0
   20.9903  -13.9330   -5.2415 C   0  0  0  0  0  0  0  0  0  0  0  0
   20.8272  -11.5274   -5.2218 C   0  0  0  0  0  0  0  0  0  0  0  0
   18.1698  -10.1722   -6.5746 C   0  0  0  0  0  0  0  0  0  0  0  0
   19.0574  -10.2464   -7.7580 C   0  0  0  0  0  0  0  0  0  0  0  0
   21.4235   -7.7626   -9.3659 C   0  0  0  0  0  0  0  0  0  0  0  0
   17.9476  -10.1733   -4.2140 C   0  0  0  0  0  0  0  0  0  0  0  0
   23.1392  -15.0964   -5.2580 C   0  0  1  0  0  0  0  0  0  0  0  0
   24.1858  -15.1633   -4.1828 C   0  0  0  0  0  0  0  0  0  0  0  0
   22.0271   -8.1202   -8.0943 C   0  0  0  0  0  0  0  0  0  0  0  0
   24.0398   -7.6543   -5.1475 C   0  0  0  0  0  0  0  0  0  0  0  0
   14.6488   -9.8406   -5.7742 F   0  0  0  0  0  0  0  0  0  0  0  0
   22.8443   -7.3638   -7.3402 N   0  0  0  0  0  0  0  0  0  0  0  0
   24.5751   -6.5404   -5.1362 O   0  0  0  0  0  0  0  0  0  0  0  0
   20.0972  -10.3709   -5.2101 O   0  0  0  0  0  0  0  0  0  0  0  0
   22.2641  -16.1831   -5.0557 O   0  0  0  0  0  0  0  0  0  0  0  0
  5  1  1  0
  1  6  1  0
 31  1  1  0
  2  3  1  0
 30  2  2  0
  3  4  1  0
  3  7  2  0
  4  5  2  0
  4 20  1  0
  7 31  1  0
  7 33  1  0
 21  8  2  0
  8 22  1  0
  8 28  1  0
  9 22  2  0
 23  9  1  0
 10 24  2  0
 10 27  1  0
 35 10  1  0
 11 12  2  0
 24 11  1  0
 13 12  1  0
 12 32  1  0
 27 13  2  0
 27 14  1  0
 28 15  1  6
 16 19  1  0
 26 16  1  0
 19 17  1  0
 26 18  2  0
 20 21  1  0
 20 23  2  0
 23 35  1  0
 24 25  1  0
 26 30  1  0
 28 29  1  0
 28 36  1  0
 30 33  1  0
 31 34  2  0
M  END
$$$$
