
     RDKit          3D

 36 39  0  0  0  0  0  0  0  0999 V2000
   24.4211   -9.2085   -4.5890 N   0  0  0  0  0  0  0  0  0  0  0  0
   21.2222   -9.2887   -7.1243 C   0  0  0  0  0  0  0  0  0  0  0  0
   22.2400   -9.4494   -6.2210 C   0  0  0  0  0  0  0  0  0  0  0  0
   22.5996  -10.4914   -5.3906 C   0  0  0  0  0  0  0  0  0  0  0  0
   23.7129  -10.3349   -4.5750 C   0  0  0  0  0  0  0  0  0  0  0  0
   25.5699   -9.1349   -3.7017 C   0  0  0  0  0  0  0  0  0  0  0  0
   22.9997   -8.2961   -6.2076 C   0  0  0  0  0  0  0  0  0  0  0  0
   21.4010  -13.9335   -4.5062 C   0  0  0  0  0  0  0  0  0  0  0  0
   20.0000  -13.0406   -6.2254 C   0  0  0  0  0  0  0  0  0  0  0  0
   19.3904  -10.7003   -7.9025 C   0  0  0  0  0  0  0  0  0  0  0  0
   18.4001  -10.9848  -10.0897 C   0  0  0  0  0  0  0  0  0  0  0  0
   17.2080  -10.4683   -9.6270 C   0  0  0  0  0  0  0  0  0  0  0  0
   17.1032  -10.0710   -8.3180 C   0  0  0  0  0  0  0  0  0  0  0  0
   17.9873   -9.7320   -6.0588 C   0  0  0  0  0  0  0  0  0  0  0  0
   20.6999  -15.1176   -2.4675 C   0  0  0  0  0  0  0  0  0  0  0  0
   19.4019   -8.1469   -9.1992 N   0  0  0  0  0  0  0  0  0  0  0  0
   18.0552   -8.7748  -11.1076 C   0  0  0  0  0  0  0  0  0  0  0  0
   20.7217   -6.2665   -9.0820 O   0  0  0  0  0  0  0  0  0  0  0  0
   18.4881   -7.6208  -10.1996 C   0  0  0  0  0  0  0  0  0  0  0  0
   21.8240  -11.7184   -5.3785 C   0  0  0  0  0  0  0  0  0  0  0  0
   22.1247  -12.7586   -4.5343 C   0  0  0  0  0  0  0  0  0  0  0  0
   20.3299  -14.0659   -5.3642 C   0  0  0  0  0  0  0  0  0  0  0  0
   20.7518  -11.8569   -6.2339 C   0  0  0  0  0  0  0  0  0  0  0  0
   19.4873  -11.0964   -9.2165 C   0  0  0  0  0  0  0  0  0  0  0  0
   20.7824  -11.6464   -9.6791 C   0  0  0  0  0  0  0  0  0  0  0  0
   20.4890   -7.4205   -8.6846 C   0  0  0  0  0  0  0  0  0  0  0  0
   18.1965  -10.1857   -7.4484 C   0  0  0  0  0  0  0  0  0  0  0  0
   21.7060  -15.0632   -3.6083 C   0  0  1  0  0  0  0  0  0  0  0  0
   21.7451  -16.3900   -4.3112 C   0  0  0  0  0  0  0  0  0  0  0  0
   21.3498   -8.0197   -7.6801 C   0  0  0  0  0  0  0  0  0  0  0  0
   24.1045   -8.1936   -5.3707 C   0  0  0  0  0  0  0  0  0  0  0  0
   16.1733  -10.3731  -10.4978 F   0  0  0  0  0  0  0  0  0  0  0  0
   22.4286   -7.4663   -7.0982 N   0  0  0  0  0  0  0  0  0  0  0  0
   24.7677   -7.1508   -5.3777 O   0  0  0  0  0  0  0  0  0  0  0  0
   20.4574  -10.8173   -7.0723 O   0  0  0  0  0  0  0  0  0  0  0  0
   22.9735  -14.8637   -3.0243 O   0  0  0  0  0  0  0  0  0  0  0  0
  5  1  1  0
  1  6  1  0
 31  1  1  0
  2  3  1  0
 30  2  2  0
  3  4  1  0
  3  7  2  0
  4  5  2  0
  4 20  1  0
  7 31  1  0
  7 33  1  0
 21  8  2  0
  8 22  1  0
  8 28  1  0
  9 22  2  0
 23  9  1  0
 10 24  2  0
 10 27  1  0
 35 10  1  0
 11 12  2  0
 24 11  1  0
 13 12  1  0
 12 32  1  0
 27 13  2  0
 27 14  1  0
 28 15  1  1
 16 19  1  0
 26 16  1  0
 19 17  1  0
 26 18  2  0
 20 21  1  0
 20 23  2  0
 23 35  1  0
 24 25  1  0
 26 30  1  0
 28 29  1  0
 28 36  1  0
 30 33  1  0
 31 34  2  0
M  END
$$$$
