
     RDKit          3D

 36 39  0  0  0  0  0  0  0  0999 V2000
   23.4537   -9.2912   -4.5825 N   0  0  0  0  0  0  0  0  0  0  0  0
   21.1538   -8.9274   -7.9358 C   0  0  0  0  0  0  0  0  0  0  0  0
   21.8325   -9.2275   -6.7839 C   0  0  0  0  0  0  0  0  0  0  0  0
   21.7920  -10.3090   -5.9275 C   0  0  0  0  0  0  0  0  0  0  0  0
   22.6290  -10.3083   -4.8192 C   0  0  0  0  0  0  0  0  0  0  0  0
   24.2924   -9.3776   -3.3985 C   0  0  0  0  0  0  0  0  0  0  0  0
   22.7015   -8.1909   -6.5050 C   0  0  0  0  0  0  0  0  0  0  0  0
   19.0175  -12.3688   -7.3857 C   0  0  0  0  0  0  0  0  0  0  0  0
   20.1681  -13.6678   -5.7411 C   0  0  0  0  0  0  0  0  0  0  0  0
   22.3584  -13.7369   -3.7804 C   0  0  0  0  0  0  0  0  0  0  0  0
   23.8048  -15.6079   -3.2774 C   0  0  0  0  0  0  0  0  0  0  0  0
   23.0313  -15.9224   -2.1797 C   0  0  0  0  0  0  0  0  0  0  0  0
   21.9330  -15.1561   -1.8816 C   0  0  0  0  0  0  0  0  0  0  0  0
   20.3928  -13.2939   -2.2819 C   0  0  0  0  0  0  0  0  0  0  0  0
   18.0953  -13.3948   -9.4220 C   0  0  0  0  0  0  0  0  0  0  0  0
   20.2240   -7.5661  -10.4276 N   0  0  0  0  0  0  0  0  0  0  0  0
   18.2655   -6.6763  -11.5329 C   0  0  0  0  0  0  0  0  0  0  0  0
   21.6211   -5.8468   -9.8081 O   0  0  0  0  0  0  0  0  0  0  0  0
   19.7671   -6.9459  -11.6600 C   0  0  0  0  0  0  0  0  0  0  0  0
   20.8907  -11.4163   -6.1896 C   0  0  0  0  0  0  0  0  0  0  0  0
   19.8853  -11.3289   -7.1206 C   0  0  0  0  0  0  0  0  0  0  0  0
   19.1688  -13.5457   -6.6836 C   0  0  0  0  0  0  0  0  0  0  0  0
   21.0367  -12.5957   -5.4909 C   0  0  0  0  0  0  0  0  0  0  0  0
   23.4581  -14.5104   -4.0725 C   0  0  0  0  0  0  0  0  0  0  0  0
   24.2659  -14.1438   -5.2586 C   0  0  0  0  0  0  0  0  0  0  0  0
   21.1635   -6.9762   -9.5652 C   0  0  0  0  0  0  0  0  0  0  0  0
   21.5913  -14.0577   -2.6826 C   0  0  0  0  0  0  0  0  0  0  0  0
   17.9311  -12.2970   -8.3807 C   0  0  1  0  0  0  0  0  0  0  0  0
   16.5598  -12.3776   -7.7733 C   0  0  0  0  0  0  0  0  0  0  0  0
   21.6057   -7.6887   -8.3795 C   0  0  0  0  0  0  0  0  0  0  0  0
   23.5171   -8.2426   -5.3810 C   0  0  0  0  0  0  0  0  0  0  0  0
   23.3935  -16.9918   -1.4293 F   0  0  0  0  0  0  0  0  0  0  0  0
   22.5311   -7.2903   -7.4887 N   0  0  0  0  0  0  0  0  0  0  0  0
   24.2860   -7.3020   -5.1539 O   0  0  0  0  0  0  0  0  0  0  0  0
   22.0399  -12.6767   -4.5650 O   0  0  0  0  0  0  0  0  0  0  0  0
   18.0108  -11.0686   -9.0680 O   0  0  0  0  0  0  0  0  0  0  0  0
  5  1  1  0
  1  6  1  0
 31  1  1  0
  2  3  1  0
 30  2  2  0
  3  4  1  0
  3  7  2  0
  4  5  2  0
  4 20  1  0
  7 31  1  0
  7 33  1  0
 21  8  2  0
  8 22  1  0
  8 28  1  0
  9 22  2  0
 23  9  1  0
 10 24  2  0
 10 27  1  0
 35 10  1  0
 11 12  2  0
 24 11  1  0
 13 12  1  0
 12 32  1  0
 27 13  2  0
 27 14  1  0
 28 15  1  6
 16 19  1  0
 26 16  1  0
 19 17  1  0
 26 18  2  0
 20 21  1  0
 20 23  2  0
 23 35  1  0
 24 25  1  0
 26 30  1  0
 28 29  1  0
 28 36  1  0
 30 33  1  0
 31 34  2  0
M  END
$$$$
