
     RDKit          3D

 36 39  0  0  0  0  0  0  0  0999 V2000
   24.2912   -8.5799   -4.0344 N   0  0  0  0  0  0  0  0  0  0  0  0
   21.7603   -9.3773   -7.1370 C   0  0  0  0  0  0  0  0  0  0  0  0
   22.5663   -9.2970   -6.0318 C   0  0  0  0  0  0  0  0  0  0  0  0
   22.8554  -10.1862   -5.0166 C   0  0  0  0  0  0  0  0  0  0  0  0
   23.7356   -9.7889   -4.0184 C   0  0  0  0  0  0  0  0  0  0  0  0
   25.1999   -8.2519   -2.9486 C   0  0  0  0  0  0  0  0  0  0  0  0
   23.1625   -8.0513   -6.0142 C   0  0  0  0  0  0  0  0  0  0  0  0
   22.4433  -13.9141   -5.0049 C   0  0  0  0  0  0  0  0  0  0  0  0
   20.2819  -12.8931   -4.9620 C   0  0  0  0  0  0  0  0  0  0  0  0
   18.8165  -10.3370   -5.2794 C   0  0  0  0  0  0  0  0  0  0  0  0
   16.5643   -9.7230   -4.6502 C   0  0  0  0  0  0  0  0  0  0  0  0
   16.1139  -10.0451   -5.9133 C   0  0  0  0  0  0  0  0  0  0  0  0
   17.0007  -10.5082   -6.8522 C   0  0  0  0  0  0  0  0  0  0  0  0
   19.2352  -11.1614   -7.6140 C   0  0  0  0  0  0  0  0  0  0  0  0
   23.9806  -15.2950   -6.3388 C   0  0  0  0  0  0  0  0  0  0  0  0
   20.3909   -8.7559   -9.7199 N   0  0  0  0  0  0  0  0  0  0  0  0
   18.1872   -8.7248  -10.7161 C   0  0  0  0  0  0  0  0  0  0  0  0
   21.2839   -6.6485   -9.4897 O   0  0  0  0  0  0  0  0  0  0  0  0
   19.6788   -8.4778  -10.9560 C   0  0  0  0  0  0  0  0  0  0  0  0
   22.2469  -11.5040   -5.0031 C   0  0  0  0  0  0  0  0  0  0  0  0
   23.0008  -12.6515   -5.0173 C   0  0  0  0  0  0  0  0  0  0  0  0
   21.0693  -14.0251   -4.9770 C   0  0  0  0  0  0  0  0  0  0  0  0
   20.8737  -11.6218   -4.9752 C   0  0  0  0  0  0  0  0  0  0  0  0
   17.9209   -9.8732   -4.3436 C   0  0  0  0  0  0  0  0  0  0  0  0
   18.4393   -9.5370   -2.9975 C   0  0  0  0  0  0  0  0  0  0  0  0
   21.1721   -7.8031   -9.0445 C   0  0  0  0  0  0  0  0  0  0  0  0
   18.3587  -10.6564   -6.5384 C   0  0  0  0  0  0  0  0  0  0  0  0
   23.2332  -15.1595   -5.0198 C   0  0  1  0  0  0  0  0  0  0  0  0
   24.2020  -15.2650   -3.8769 C   0  0  0  0  0  0  0  0  0  0  0  0
   21.8558   -8.1667   -7.8158 C   0  0  0  0  0  0  0  0  0  0  0  0
   24.0363   -7.7063   -4.9900 C   0  0  0  0  0  0  0  0  0  0  0  0
   14.7938   -9.8885   -6.1791 F   0  0  0  0  0  0  0  0  0  0  0  0
   22.7071   -7.4076   -7.1032 N   0  0  0  0  0  0  0  0  0  0  0  0
   24.5566   -6.5853   -4.9975 O   0  0  0  0  0  0  0  0  0  0  0  0
   20.1283  -10.4752   -4.9611 O   0  0  0  0  0  0  0  0  0  0  0  0
   22.3616  -16.2639   -4.9303 O   0  0  0  0  0  0  0  0  0  0  0  0
  5  1  1  0
  1  6  1  0
 31  1  1  0
  2  3  1  0
 30  2  2  0
  3  4  1  0
  3  7  2  0
  4  5  2  0
  4 20  1  0
  7 31  1  0
  7 33  1  0
 21  8  2  0
  8 22  1  0
  8 28  1  0
  9 22  2  0
 23  9  1  0
 10 24  2  0
 10 27  1  0
 35 10  1  0
 11 12  2  0
 24 11  1  0
 13 12  1  0
 12 32  1  0
 27 13  2  0
 27 14  1  0
 28 15  1  6
 16 19  1  0
 26 16  1  0
 19 17  1  0
 26 18  2  0
 20 21  1  0
 20 23  2  0
 23 35  1  0
 24 25  1  0
 26 30  1  0
 28 29  1  0
 28 36  1  0
 30 33  1  0
 31 34  2  0
M  END
$$$$
