
     RDKit          3D

135137  0  0  0  0  0  0  0  0999 V2000
  -23.7881  -11.7263    9.6029 C   0  0  0  0  0  0  0  0  0  0  0  0
  -22.9824  -11.8163    8.6823 O   0  0  0  0  0  0  0  0  0  0  0  0
  -25.2765  -11.7178    9.3849 C   0  0  0  0  0  0  0  0  0  0  0  0
  -23.4260  -11.6117   10.9341 N   0  0  0  0  0  0  0  0  0  0  0  0
  -24.1932  -10.8089   11.8815 C   0  0  2  0  0  0  0  0  0  0  0  0
  -24.0810   -9.3034   11.5018 C   0  0  0  0  0  0  0  0  0  0  0  0
  -24.7593   -8.4266   12.0329 O   0  0  0  0  0  0  0  0  0  0  0  0
  -23.8141  -11.1022   13.3481 C   0  0  0  0  0  0  0  0  0  0  0  0
  -23.9595  -12.5767   13.7656 C   0  0  0  0  0  0  0  0  0  0  0  0
  -23.5733  -12.7582   15.2407 C   0  0  0  0  0  0  0  0  0  0  0  0
  -24.7612  -12.9532   16.1789 C   0  0  0  0  0  0  0  0  0  0  0  0
  -24.3038  -13.1798   17.5702 N   0  0  0  0  0  4  0  0  0  0  0  0
  -23.1379   -9.0326   10.5207 N   0  0  0  0  0  0  0  0  0  0  0  0
  -22.8965   -7.6616   10.0309 C   0  0  2  0  0  0  0  0  0  0  0  0
  -24.2053   -7.2030    9.3276 C   0  0  0  0  0  0  0  0  0  0  0  0
  -25.0485   -8.0362    8.9801 O   0  0  0  0  0  0  0  0  0  0  0  0
  -21.5795   -7.4758    9.2625 C   0  0  0  0  0  0  0  0  0  0  0  0
  -21.0539   -6.0279    9.3558 C   0  0  0  0  0  0  0  0  0  0  0  0
  -20.9906   -5.4642   10.7811 C   0  0  0  0  0  0  0  0  0  0  0  0
  -20.4423   -4.0483   10.8473 C   0  0  0  0  0  0  0  0  0  0  0  0
  -20.5377   -3.5399   12.2267 N   0  0  0  0  0  4  0  0  0  0  0  0
  -24.4609   -5.8468    9.2737 N   0  0  0  0  0  0  0  0  0  0  0  0
  -24.6568   -5.2046    7.9585 C   0  0  2  0  0  0  0  0  0  0  0  0
  -24.7626   -6.1589    6.7477 C   0  0  0  0  0  0  0  0  0  0  0  0
  -24.2549   -7.2799    6.7691 O   0  0  0  0  0  0  0  0  0  0  0  0
  -23.5040   -4.2079    7.6837 C   0  0  0  0  0  0  0  0  0  0  0  0
  -23.0634   -3.4197    8.9213 C   0  0  0  0  0  0  0  0  0  0  0  0
  -23.5060   -1.9576    8.8767 C   0  0  0  0  0  0  0  0  0  0  0  0
  -24.7834   -1.7637    8.2043 N   0  0  0  0  0  0  0  0  0  0  0  0
  -25.4675   -0.5976    8.1706 C   0  0  0  0  0  0  0  0  0  0  0  0
  -26.7382   -0.4462    8.2864 N   0  0  0  0  0  0  0  0  0  0  0  0
  -24.6285    0.4485    8.0273 N   0  0  0  0  0  0  0  0  0  0  0  0
  -25.3929   -5.6773    5.6144 N   0  0  0  0  0  0  0  0  0  0  0  0
  -25.5439   -6.5731    4.4393 C   0  0  2  0  0  0  0  0  0  0  0  0
  -24.1796   -6.6402    3.6909 C   0  0  0  0  0  0  0  0  0  0  0  0
  -23.1394   -6.9170    4.2998 O   0  0  0  0  0  0  0  0  0  0  0  0
  -26.7490   -6.1479    3.5617 C   0  0  0  0  0  0  0  0  0  0  0  0
  -26.9570   -6.9500    2.2895 C   0  0  0  0  0  0  0  0  0  0  0  0
  -28.0323   -6.6348    1.4396 C   0  0  0  0  0  0  0  0  0  0  0  0
  -26.1058   -8.0042    1.9275 C   0  0  0  0  0  0  0  0  0  0  0  0
  -28.2238   -7.3276    0.2407 C   0  0  0  0  0  0  0  0  0  0  0  0
  -26.2918   -8.6863    0.7228 C   0  0  0  0  0  0  0  0  0  0  0  0
  -27.3456   -8.3433   -0.1125 C   0  0  0  0  0  0  0  0  0  0  0  0
  -27.4807   -9.0349   -1.2769 O   0  0  0  0  0  0  0  0  0  0  0  0
  -24.2006   -6.5138    2.3284 N   0  0  0  0  0  0  0  0  0  0  0  0
  -23.5240   -7.4161    1.3902 C   0  0  2  0  0  0  0  0  0  0  0  0
  -22.0116   -7.0910    1.4069 C   0  0  0  0  0  0  0  0  0  0  0  0
  -21.1682   -7.9035    1.0337 O   0  0  0  0  0  0  0  0  0  0  0  0
  -24.0807   -7.2204   -0.0253 C   0  0  0  0  0  0  0  0  0  0  0  0
  -25.4927   -7.4280   -0.0147 O   0  0  0  0  0  0  0  0  0  0  0  0
  -21.6930   -5.8369    1.8799 N   0  0  0  0  0  0  0  0  0  0  0  0
  -20.5112   -5.0782    1.4246 C   0  0  2  0  0  0  0  0  0  0  0  0
  -20.4270   -3.7216    2.1872 C   0  0  0  0  0  0  0  0  0  0  0  0
  -20.1122   -2.6640    1.6452 O   0  0  0  0  0  0  0  0  0  0  0  0
  -20.5520   -4.7570   -0.0886 C   0  0  0  0  0  0  0  0  0  0  0  0
  -19.4279   -3.8697   -0.6512 C   0  0  0  0  0  0  0  0  0  0  0  0
  -18.0059   -4.4114   -0.5067 C   0  0  0  0  0  0  0  0  0  0  0  0
  -17.0680   -3.3145   -0.3784 N   0  0  0  0  0  0  0  0  0  0  0  0
  -15.7319   -3.5130   -0.3747 C   0  0  0  0  0  0  0  0  0  0  0  0
  -15.1623   -2.9595   -1.4654 N   0  0  0  0  0  0  0  0  0  0  0  0
  -15.0756   -4.0969    0.5568 N   0  0  0  0  0  0  0  0  0  0  0  0
  -21.7830   -5.9932    3.8521 C   0  0  0  0  0  0  0  0  0  0  0  0
  -20.8864   -3.7865    3.4930 N   0  0  0  0  0  0  0  0  0  0  0  0
  -21.5933   -7.1965    3.7882 O   0  0  0  0  0  0  0  0  0  0  0  0
  -20.7266   -4.9772    4.3700 C   0  0  1  0  0  0  0  0  0  0  0  0
  -21.0648   -4.7124    5.8697 C   0  0  0  0  0  0  0  0  0  0  0  0
  -21.3375   -7.1085    6.9443 C   0  0  0  0  0  0  0  0  0  0  0  0
  -20.4076   -8.2905    7.0408 C   0  0  0  0  0  0  0  0  0  0  0  0
  -20.5703   -5.7700    6.8893 C   0  0  0  0  0  0  0  0  0  0  0  0
  -19.3096   -5.5351    4.1822 C   0  0  0  0  0  0  0  0  0  0  0  0
  -23.0433   -5.4840    3.6115 N   0  0  0  0  0  0  0  0  0  0  0  0
  -24.1828   -6.3876    3.4590 C   0  0  2  0  0  0  0  0  0  0  0  0
  -24.2588   -7.3243    2.2237 C   0  0  0  0  0  0  0  0  0  0  0  0
  -24.7468   -8.4600    2.3692 O   0  0  0  0  0  0  0  0  0  0  0  0
  -25.4998   -5.6095    3.6803 C   0  0  0  0  0  0  0  0  0  0  0  0
  -25.2996   -4.1600    4.1322 C   0  0  0  0  0  0  0  0  0  0  0  0
  -24.0423   -3.9865    4.9611 C   0  0  0  0  0  0  0  0  0  0  0  0
  -23.3263   -4.9303    5.3029 O   0  0  0  0  0  0  0  0  0  0  0  0
  -23.7604   -2.7124    5.3385 N   0  0  0  0  0  0  0  0  0  0  0  0
  -24.0180   -6.9908    0.9359 N   0  0  0  0  0  0  0  0  0  0  0  0
  -23.4811   -5.8199    0.2354 C   0  0  2  0  0  0  0  0  0  0  0  0
  -21.9531   -5.7617    0.4176 C   0  0  0  0  0  0  0  0  0  0  0  0
  -21.4137   -4.9551    1.1685 O   0  0  0  0  0  0  0  0  0  0  0  0
  -24.2415   -4.5283    0.5817 C   0  0  0  0  0  0  0  0  0  0  0  0
  -25.7656   -4.6443    0.7552 C   0  0  1  0  0  0  0  0  0  0  0  0
  -26.3281   -5.8675    0.0469 C   0  0  0  0  0  0  0  0  0  0  0  0
  -26.0965   -4.7388    2.2504 C   0  0  0  0  0  0  0  0  0  0  0  0
  -21.2203   -6.7080   -0.2741 N   0  0  0  0  0  0  0  0  0  0  0  0
  -20.7817   -7.9511    0.4354 C   0  0  2  0  0  0  0  0  0  0  0  0
  -19.4248   -7.6234    1.1083 C   0  0  0  0  0  0  0  0  0  0  0  0
  -18.8295   -6.5849    0.7903 O   0  0  0  0  0  0  0  0  0  0  0  0
  -20.5603   -9.0646   -0.5938 C   0  0  0  0  0  0  0  0  0  0  0  0
  -20.0653  -10.3947    0.0001 C   0  0  1  0  0  0  0  0  0  0  0  0
  -18.5583  -10.5326   -0.2248 C   0  0  0  0  0  0  0  0  0  0  0  0
  -20.3685  -10.4873    1.4979 C   0  0  0  0  0  0  0  0  0  0  0  0
  -18.4088  -10.9004    1.9814 C   0  0  0  0  0  0  0  0  0  0  0  0
  -18.7850   -8.3955    2.0174 N   0  0  0  0  0  0  0  0  0  0  0  0
  -19.1077  -11.8382    1.6076 O   0  0  0  0  0  0  0  0  0  0  0  0
  -19.0105   -9.6885    2.7526 C   0  0  1  0  0  0  0  0  0  0  0  0
  -20.5042  -10.0037    3.0187 C   0  0  0  0  0  0  0  0  0  0  0  0
  -21.4763  -10.0239    5.4511 C   0  0  0  0  0  0  0  0  0  0  0  0
  -20.4567   -9.4860    6.4163 C   0  0  0  0  0  0  0  0  0  0  0  0
  -20.8977  -10.8288    4.2634 C   0  0  0  0  0  0  0  0  0  0  0  0
  -18.1670   -9.5803    4.0350 C   0  0  0  0  0  0  0  0  0  0  0  0
  -17.0647  -10.8504    1.7048 N   0  0  0  0  0  0  0  0  0  0  0  0
  -16.3218   -9.6044    1.4384 C   0  0  2  0  0  0  0  0  0  0  0  0
  -15.9599   -9.1751   -0.0144 C   0  0  0  0  0  0  0  0  0  0  0  0
  -15.1563   -9.8113   -0.6972 O   0  0  0  0  0  0  0  0  0  0  0  0
  -15.1478   -9.3588    2.4201 C   0  0  0  0  0  0  0  0  0  0  0  0
  -14.1897   -8.2430    2.0791 C   0  0  0  0  0  0  0  0  0  0  0  0
  -14.6235   -6.9185    1.9442 C   0  0  0  0  0  0  0  0  0  0  0  0
  -12.8185   -8.5153    1.9494 C   0  0  0  0  0  0  0  0  0  0  0  0
  -13.7172   -5.9009    1.6338 C   0  0  0  0  0  0  0  0  0  0  0  0
  -11.9108   -7.4931    1.6576 C   0  0  0  0  0  0  0  0  0  0  0  0
  -12.3619   -6.1872    1.4887 C   0  0  0  0  0  0  0  0  0  0  0  0
  -16.5124   -7.9847   -0.4647 N   0  0  0  0  0  0  0  0  0  0  0  0
  -16.1260   -7.4971   -1.8006 C   0  0  2  0  0  0  0  0  0  0  0  0
  -14.8501   -6.6259   -1.6980 C   0  0  0  0  0  0  0  0  0  0  0  0
  -13.9069   -6.7411   -2.4737 O   0  0  0  0  0  0  0  0  0  0  0  0
  -17.2345   -6.6531   -2.4554 C   0  0  0  0  0  0  0  0  0  0  0  0
  -16.7773   -5.3363   -3.0903 C   0  0  0  0  0  0  0  0  0  0  0  0
  -17.9128   -4.4573   -3.6180 C   0  0  0  0  0  0  0  0  0  0  0  0
  -17.5251   -3.8784   -4.9026 N   0  0  0  0  0  0  0  0  0  0  0  0
  -16.3643   -3.1873   -5.0034 C   0  0  0  0  0  0  0  0  0  0  0  0
  -16.2781   -2.5366   -6.1809 N   0  0  0  0  0  0  0  0  0  0  0  0
  -15.4605   -3.1315   -4.0992 N   0  0  0  0  0  0  0  0  0  0  0  0
  -14.9429   -5.5990   -0.7715 N   0  0  0  0  0  0  0  0  0  0  0  0
  -13.7312   -4.8951   -0.3547 C   0  0  2  0  0  0  0  0  0  0  0  0
  -13.9317   -4.5047    1.1089 C   0  0  0  0  0  0  0  0  0  0  0  0
  -14.0961   -5.5641    1.9251 O   0  0  0  0  0  0  0  0  0  0  0  0
  -13.5188   -3.6482   -1.1900 C   0  0  0  0  0  0  0  0  0  0  0  0
  -13.9106   -3.3623    1.5497 O   0  0  0  0  0  0  0  0  0  0  0  0
  -26.9111    0.5379    8.4861 H   0  0  0  0  0  0  0  0  0  0  0  0
  -14.0771   -4.0618    0.3466 H   0  0  0  0  0  0  0  0  0  0  0  0
  -15.7053   -3.7389   -3.3168 H   0  0  0  0  0  0  0  0  0  0  0  0
  1  2  2  0
  1  3  1  0
  4  1  1  0
  5  4  1  0
  6  5  1  0
  5  8  1  1
  6  7  2  0
 13  6  1  0
  8  9  1  0
  9 10  1  0
 10 11  1  0
 11 12  1  0
 14 13  1  0
 15 14  1  0
 14 17  1  6
 15 16  2  0
 22 15  1  0
 17 18  1  0
 18 19  1  0
 19 20  1  0
 20 21  1  0
 23 22  1  0
 24 23  1  0
 23 26  1  6
 24 25  2  0
 33 24  1  0
 26 27  1  0
 27 28  1  0
 28 29  1  0
 29 30  1  0
 30 31  2  0
 30 32  1  0
 34 33  1  0
 35 34  1  0
 34 37  1  6
 35 36  2  0
 45 35  1  0
 37 38  1  0
 38 39  2  0
 38 40  1  0
 39 41  1  0
 40 42  2  0
 41 43  2  0
 42 43  1  0
 43 44  1  0
 46 45  1  0
 47 46  1  0
 46 49  1  6
 47 48  2  0
 51 47  1  0
 49 50  1  0
 52 51  1  0
 53 52  1  0
 52 55  1  6
 53 54  2  0
 63 53  1  0
 55 56  1  0
 56 57  1  0
 57 58  1  0
 58 59  1  0
 59 60  1  0
 59 61  2  0
 62 64  2  0
 62 65  1  0
 71 62  1  0
 65 63  1  0
 65 66  1  0
 65 70  1  1
 66 69  1  0
 67 68  1  0
 69 67  1  0
 68102  2  0
 72 71  1  0
 73 72  1  0
 72 75  1  6
 73 74  2  0
 80 73  1  0
 75 76  1  0
 76 77  1  0
 77 78  2  0
 77 79  1  0
 81 80  1  0
 82 81  1  0
 81 84  1  1
 82 83  2  0
 88 82  1  0
 84 85  1  0
 85 86  1  6
 85 87  1  0
 89 88  1  0
 90 89  1  0
 89 92  1  6
 90 91  2  0
 97 90  1  0
 92 93  1  0
 93 94  1  1
 93 95  1  0
 96 98  2  0
 99 96  1  0
 96105  1  0
 97 99  1  0
 99100  1  0
 99104  1  1
100103  1  0
102101  1  0
101103  1  0
105106  1  0
106107  1  0
106109  1  1
107108  2  0
107116  1  0
109110  1  0
110111  2  0
110112  1  0
111113  1  0
112114  2  0
113115  2  0
114115  1  0
116117  1  0
117118  1  0
117120  1  1
118119  2  0
118127  1  0
120121  1  0
121122  1  0
122123  1  0
123124  1  0
124125  1  0
124126  2  0
127128  1  0
128129  1  0
128131  1  6
129130  1  0
129132  2  0
 31133  1  0
 61134  1  0
126135  1  0
M  CHG  2  12   1  21   1
M  END
$$$$
