
     RDKit          3D

135137  0  0  0  0  0  0  0  0999 V2000
  -12.9778   -2.1091    9.8827 C   0  0  0  0  0  0  0  0  0  0  0  0
  -12.1310   -2.8449   10.3791 O   0  0  0  0  0  0  0  0  0  0  0  0
  -13.1735   -0.6826   10.3180 C   0  0  0  0  0  0  0  0  0  0  0  0
  -13.8503   -2.5044    8.8833 N   0  0  0  0  0  0  0  0  0  0  0  0
  -14.6530   -3.7190    8.9885 C   0  0  2  0  0  0  0  0  0  0  0  0
  -15.6123   -3.8190    7.7665 C   0  0  0  0  0  0  0  0  0  0  0  0
  -16.2853   -2.8722    7.3644 O   0  0  0  0  0  0  0  0  0  0  0  0
  -15.3752   -3.8346   10.3471 C   0  0  0  0  0  0  0  0  0  0  0  0
  -15.7548   -5.2706   10.7515 C   0  0  0  0  0  0  0  0  0  0  0  0
  -14.9708   -5.7024   11.9993 C   0  0  0  0  0  0  0  0  0  0  0  0
  -14.0148   -4.6406   12.5360 C   0  0  0  0  0  0  0  0  0  0  0  0
  -14.5600   -4.0097   13.7612 N   0  0  0  0  0  4  0  0  0  0  0  0
  -15.6326   -5.0665    7.1595 N   0  0  0  0  0  0  0  0  0  0  0  0
  -16.3225   -5.2957    5.8753 C   0  0  2  0  0  0  0  0  0  0  0  0
  -17.1897   -4.0338    5.6042 C   0  0  0  0  0  0  0  0  0  0  0  0
  -16.9468   -2.9750    6.1924 O   0  0  0  0  0  0  0  0  0  0  0  0
  -17.0084   -6.6643    5.7489 C   0  0  0  0  0  0  0  0  0  0  0  0
  -16.3303   -7.5562    4.6877 C   0  0  0  0  0  0  0  0  0  0  0  0
  -15.2514   -6.8492    3.8573 C   0  0  0  0  0  0  0  0  0  0  0  0
  -14.2998   -7.8081    3.1609 C   0  0  0  0  0  0  0  0  0  0  0  0
  -13.4412   -7.0654    2.2220 N   0  0  0  0  0  4  0  0  0  0  0  0
  -18.1034   -4.0958    4.5704 N   0  0  0  0  0  0  0  0  0  0  0  0
  -19.5460   -4.0959    4.8859 C   0  0  2  0  0  0  0  0  0  0  0  0
  -20.4047   -5.1348    4.1301 C   0  0  0  0  0  0  0  0  0  0  0  0
  -21.1151   -4.8089    3.1792 O   0  0  0  0  0  0  0  0  0  0  0  0
  -20.1430   -2.6930    4.6152 C   0  0  0  0  0  0  0  0  0  0  0  0
  -21.4977   -2.7277    3.9005 C   0  0  0  0  0  0  0  0  0  0  0  0
  -21.7222   -1.5102    3.0044 C   0  0  0  0  0  0  0  0  0  0  0  0
  -22.0504   -0.3016    3.7481 N   0  0  0  0  0  0  0  0  0  0  0  0
  -22.0756    0.9441    3.2222 C   0  0  0  0  0  0  0  0  0  0  0  0
  -23.0561    1.5004    2.6056 N   0  0  0  0  0  0  0  0  0  0  0  0
  -20.9130    1.5874    3.4528 N   0  0  0  0  0  0  0  0  0  0  0  0
  -20.3942   -6.4332    4.6072 N   0  0  0  0  0  0  0  0  0  0  0  0
  -20.7691   -7.5399    3.6902 C   0  0  2  0  0  0  0  0  0  0  0  0
  -21.2645   -6.9231    2.3485 C   0  0  0  0  0  0  0  0  0  0  0  0
  -21.3584   -7.6196    1.3309 O   0  0  0  0  0  0  0  0  0  0  0  0
  -21.7660   -8.5151    4.3670 C   0  0  0  0  0  0  0  0  0  0  0  0
  -21.3626   -9.0283    5.7378 C   0  0  0  0  0  0  0  0  0  0  0  0
  -20.0754   -9.5623    5.9267 C   0  0  0  0  0  0  0  0  0  0  0  0
  -22.2367   -8.9874    6.8339 C   0  0  0  0  0  0  0  0  0  0  0  0
  -19.6612  -10.0030    7.1870 C   0  0  0  0  0  0  0  0  0  0  0  0
  -21.8159   -9.4166    8.0949 C   0  0  0  0  0  0  0  0  0  0  0  0
  -20.5333   -9.9183    8.2641 C   0  0  0  0  0  0  0  0  0  0  0  0
  -20.1703  -10.3187    9.5132 O   0  0  0  0  0  0  0  0  0  0  0  0
  -21.7120   -5.6301    2.3758 N   0  0  0  0  0  0  0  0  0  0  0  0
  -21.5038   -4.6459    1.3080 C   0  0  2  0  0  0  0  0  0  0  0  0
  -21.7602   -5.3399   -0.0506 C   0  0  0  0  0  0  0  0  0  0  0  0
  -20.8565   -5.8797   -0.6852 O   0  0  0  0  0  0  0  0  0  0  0  0
  -20.0669   -4.1122    1.3546 C   0  0  0  0  0  0  0  0  0  0  0  0
  -19.2352   -4.9091    0.5119 O   0  0  0  0  0  0  0  0  0  0  0  0
  -23.0654   -5.2922   -0.4893 N   0  0  0  0  0  0  0  0  0  0  0  0
  -23.5188   -5.9226   -1.7448 C   0  0  2  0  0  0  0  0  0  0  0  0
  -23.7565   -4.8296   -2.8302 C   0  0  0  0  0  0  0  0  0  0  0  0
  -24.6418   -4.9068   -3.6796 O   0  0  0  0  0  0  0  0  0  0  0  0
  -24.8433   -6.7051   -1.5780 C   0  0  0  0  0  0  0  0  0  0  0  0
  -25.0209   -7.5231   -0.2870 C   0  0  0  0  0  0  0  0  0  0  0  0
  -25.1433   -9.0369   -0.4600 C   0  0  0  0  0  0  0  0  0  0  0  0
  -24.9944   -9.6962    0.8215 N   0  0  0  0  0  0  0  0  0  0  0  0
  -25.3184  -10.9954    0.9991 C   0  0  0  0  0  0  0  0  0  0  0  0
  -24.5232  -11.7933    0.2564 N   0  0  0  0  0  0  0  0  0  0  0  0
  -26.2182  -11.4282    1.8005 N   0  0  0  0  0  0  0  0  0  0  0  0
  -23.8761   -3.6677   -0.4205 C   0  0  0  0  0  0  0  0  0  0  0  0
  -22.9816   -3.6939   -2.6568 N   0  0  0  0  0  0  0  0  0  0  0  0
  -23.6563   -3.8164    0.7701 O   0  0  0  0  0  0  0  0  0  0  0  0
  -22.9198   -2.9176   -1.3896 C   0  0  1  0  0  0  0  0  0  0  0  0
  -23.4640   -1.4605   -1.5092 C   0  0  0  0  0  0  0  0  0  0  0  0
  -23.8343   -0.6607    0.9794 C   0  0  0  0  0  0  0  0  0  0  0  0
  -22.9036   -0.5475    2.1594 C   0  0  0  0  0  0  0  0  0  0  0  0
  -23.0927   -0.4853   -0.3631 C   0  0  0  0  0  0  0  0  0  0  0  0
  -21.4799   -2.9600   -0.8610 C   0  0  0  0  0  0  0  0  0  0  0  0
  -25.1014   -4.0308   -0.9422 N   0  0  0  0  0  0  0  0  0  0  0  0
  -26.1920   -4.4216   -0.0498 C   0  0  2  0  0  0  0  0  0  0  0  0
  -26.0811   -5.7372    0.7663 C   0  0  0  0  0  0  0  0  0  0  0  0
  -26.5625   -5.7661    1.9138 O   0  0  0  0  0  0  0  0  0  0  0  0
  -27.5416   -4.3119   -0.7951 C   0  0  0  0  0  0  0  0  0  0  0  0
  -28.1207   -5.6586   -1.2383 C   0  0  0  0  0  0  0  0  0  0  0  0
  -28.3779   -6.5853   -0.0665 C   0  0  0  0  0  0  0  0  0  0  0  0
  -28.0121   -7.7626   -0.0471 O   0  0  0  0  0  0  0  0  0  0  0  0
  -29.0734   -6.0439    0.9671 N   0  0  0  0  0  0  0  0  0  0  0  0
  -25.6738   -6.9431    0.3110 N   0  0  0  0  0  0  0  0  0  0  0  0
  -25.0691   -7.4515   -0.9243 C   0  0  2  0  0  0  0  0  0  0  0  0
  -23.5815   -7.0566   -0.9747 C   0  0  0  0  0  0  0  0  0  0  0  0
  -23.1650   -6.1671   -1.7100 O   0  0  0  0  0  0  0  0  0  0  0  0
  -25.8942   -7.0945   -2.1725 C   0  0  0  0  0  0  0  0  0  0  0  0
  -25.8762   -5.6229   -2.6201 C   0  0  1  0  0  0  0  0  0  0  0  0
  -25.9475   -4.6672   -1.4385 C   0  0  0  0  0  0  0  0  0  0  0  0
  -24.5855   -5.3504   -3.4035 C   0  0  0  0  0  0  0  0  0  0  0  0
  -22.7433   -7.7259   -0.1028 N   0  0  0  0  0  0  0  0  0  0  0  0
  -22.3815   -7.0814    1.1991 C   0  0  2  0  0  0  0  0  0  0  0  0
  -21.1354   -6.2010    0.9279 C   0  0  0  0  0  0  0  0  0  0  0  0
  -20.5225   -6.3365   -0.1397 O   0  0  0  0  0  0  0  0  0  0  0  0
  -22.0008   -8.1693    2.2088 C   0  0  0  0  0  0  0  0  0  0  0  0
  -20.6573   -7.9377    2.9219 C   0  0  1  0  0  0  0  0  0  0  0  0
  -20.7146   -6.6356    3.7230 C   0  0  0  0  0  0  0  0  0  0  0  0
  -20.3123   -9.0986    3.8585 C   0  0  0  0  0  0  0  0  0  0  0  0
  -20.1849   -5.5047    4.2663 C   0  0  0  0  0  0  0  0  0  0  0  0
  -20.6107   -5.2883    1.7785 N   0  0  0  0  0  0  0  0  0  0  0  0
  -20.3628   -5.2428    5.4526 O   0  0  0  0  0  0  0  0  0  0  0  0
  -20.9092   -4.7143    3.1367 C   0  0  1  0  0  0  0  0  0  0  0  0
  -22.4189   -4.6863    3.4851 C   0  0  0  0  0  0  0  0  0  0  0  0
  -23.7124   -2.4228    3.7414 C   0  0  0  0  0  0  0  0  0  0  0  0
  -22.8442   -1.2811    3.2908 C   0  0  0  0  0  0  0  0  0  0  0  0
  -22.9621   -3.5894    4.4267 C   0  0  0  0  0  0  0  0  0  0  0  0
  -20.2503   -3.3237    3.1449 C   0  0  0  0  0  0  0  0  0  0  0  0
  -19.3675   -6.5354    3.8721 N   0  0  0  0  0  0  0  0  0  0  0  0
  -19.8101   -7.6679    3.0372 C   0  0  2  0  0  0  0  0  0  0  0  0
  -19.5164   -9.1400    3.4522 C   0  0  0  0  0  0  0  0  0  0  0  0
  -18.3910   -9.6300    3.3504 O   0  0  0  0  0  0  0  0  0  0  0  0
  -19.5915   -7.4435    1.5193 C   0  0  0  0  0  0  0  0  0  0  0  0
  -18.7282   -6.2727    1.1157 C   0  0  0  0  0  0  0  0  0  0  0  0
  -18.0075   -6.2713   -0.0849 C   0  0  0  0  0  0  0  0  0  0  0  0
  -18.6835   -5.1263    1.9249 C   0  0  0  0  0  0  0  0  0  0  0  0
  -17.2194   -5.1735   -0.4407 C   0  0  0  0  0  0  0  0  0  0  0  0
  -17.9094   -4.0216    1.5582 C   0  0  0  0  0  0  0  0  0  0  0  0
  -17.1683   -4.0497    0.3804 C   0  0  0  0  0  0  0  0  0  0  0  0
  -20.6064   -9.9014    3.8484 N   0  0  0  0  0  0  0  0  0  0  0  0
  -20.5657  -11.3553    3.6108 C   0  0  2  0  0  0  0  0  0  0  0  0
  -20.7753  -12.1159    4.9431 C   0  0  0  0  0  0  0  0  0  0  0  0
  -19.8891  -12.2346    5.7829 O   0  0  0  0  0  0  0  0  0  0  0  0
  -19.2259  -11.8085    3.0028 C   0  0  0  0  0  0  0  0  0  0  0  0
  -19.3231  -12.5650    1.6745 C   0  0  0  0  0  0  0  0  0  0  0  0
  -18.0025  -13.1631    1.1858 C   0  0  0  0  0  0  0  0  0  0  0  0
  -18.0680  -14.6209    1.2652 N   0  0  0  0  0  0  0  0  0  0  0  0
  -17.8395  -15.2387    2.4489 C   0  0  0  0  0  0  0  0  0  0  0  0
  -18.8017  -14.9526    3.3487 N   0  0  0  0  0  0  0  0  0  0  0  0
  -16.8519  -16.0142    2.6954 N   0  0  0  0  0  0  0  0  0  0  0  0
  -22.0886  -12.4941    5.1746 N   0  0  0  0  0  0  0  0  0  0  0  0
  -22.4307  -13.1791    6.4201 C   0  0  2  0  0  0  0  0  0  0  0  0
  -23.9344  -13.4465    6.3753 C   0  0  0  0  0  0  0  0  0  0  0  0
  -24.4759  -13.2417    5.1587 O   0  0  0  0  0  0  0  0  0  0  0  0
  -22.1030  -12.3115    7.6190 C   0  0  0  0  0  0  0  0  0  0  0  0
  -24.6136  -13.8481    7.3120 O   0  0  0  0  0  0  0  0  0  0  0  0
  -23.0079    2.5002    2.7956 H   0  0  0  0  0  0  0  0  0  0  0  0
  -26.0099  -11.1171    2.7504 H   0  0  0  0  0  0  0  0  0  0  0  0
  -16.4200  -16.3242    1.8246 H   0  0  0  0  0  0  0  0  0  0  0  0
  1  2  2  0
  1  3  1  0
  4  1  1  0
  5  4  1  0
  6  5  1  0
  5  8  1  1
  6  7  2  0
 13  6  1  0
  8  9  1  0
  9 10  1  0
 10 11  1  0
 11 12  1  0
 14 13  1  0
 15 14  1  0
 14 17  1  1
 15 16  2  0
 22 15  1  0
 17 18  1  0
 18 19  1  0
 19 20  1  0
 20 21  1  0
 23 22  1  0
 24 23  1  0
 23 26  1  6
 24 25  2  0
 33 24  1  0
 26 27  1  0
 27 28  1  0
 28 29  1  0
 29 30  1  0
 30 31  2  0
 30 32  1  0
 34 33  1  0
 35 34  1  0
 34 37  1  1
 35 36  2  0
 45 35  1  0
 37 38  1  0
 38 39  2  0
 38 40  1  0
 39 41  1  0
 40 42  2  0
 41 43  2  0
 42 43  1  0
 43 44  1  0
 46 45  1  0
 47 46  1  0
 46 49  1  6
 47 48  2  0
 51 47  1  0
 49 50  1  0
 52 51  1  0
 53 52  1  0
 52 55  1  1
 53 54  2  0
 63 53  1  0
 55 56  1  0
 56 57  1  0
 57 58  1  0
 58 59  1  0
 59 60  1  0
 59 61  2  0
 62 64  2  0
 62 65  1  0
 71 62  1  0
 65 63  1  0
 65 66  1  0
 65 70  1  1
 66 69  1  0
 67 68  1  0
 69 67  1  0
 68102  2  0
 72 71  1  0
 73 72  1  0
 72 75  1  6
 73 74  2  0
 80 73  1  0
 75 76  1  0
 76 77  1  0
 77 78  2  0
 77 79  1  0
 81 80  1  0
 82 81  1  0
 81 84  1  6
 82 83  2  0
 88 82  1  0
 84 85  1  0
 85 86  1  1
 85 87  1  0
 89 88  1  0
 90 89  1  0
 89 92  1  1
 90 91  2  0
 97 90  1  0
 92 93  1  0
 93 94  1  1
 93 95  1  0
 96 98  2  0
 99 96  1  0
 96105  1  0
 97 99  1  0
 99100  1  0
 99104  1  6
100103  1  0
102101  1  0
101103  1  0
105106  1  0
106107  1  0
106109  1  6
107108  2  0
107116  1  0
109110  1  0
110111  2  0
110112  1  0
111113  1  0
112114  2  0
113115  2  0
114115  1  0
116117  1  0
117118  1  0
117120  1  1
118119  2  0
118127  1  0
120121  1  0
121122  1  0
122123  1  0
123124  1  0
124125  1  0
124126  2  0
127128  1  0
128129  1  0
128131  1  1
129130  1  0
129132  2  0
 31133  1  0
 61134  1  0
126135  1  0
M  CHG  2  12   1  21   1
M  END
$$$$
