
     RDKit          3D

135137  0  0  0  0  0  0  0  0999 V2000
  -34.7489   -5.6974   -1.9276 C   0  0  0  0  0  0  0  0  0  0  0  0
  -35.2060   -6.7529   -1.5013 O   0  0  0  0  0  0  0  0  0  0  0  0
  -35.4564   -4.8602   -2.9579 C   0  0  0  0  0  0  0  0  0  0  0  0
  -33.5366   -5.1648   -1.5237 N   0  0  0  0  0  0  0  0  0  0  0  0
  -32.3404   -5.2366   -2.3571 C   0  0  2  0  0  0  0  0  0  0  0  0
  -31.1782   -4.4603   -1.6713 C   0  0  0  0  0  0  0  0  0  0  0  0
  -31.0626   -3.2380   -1.7308 O   0  0  0  0  0  0  0  0  0  0  0  0
  -32.6043   -4.7892   -3.8100 C   0  0  0  0  0  0  0  0  0  0  0  0
  -33.3161   -5.8371   -4.6846 C   0  0  0  0  0  0  0  0  0  0  0  0
  -32.4811   -7.1231   -4.7692 C   0  0  0  0  0  0  0  0  0  0  0  0
  -30.9732   -6.8889   -4.7981 C   0  0  0  0  0  0  0  0  0  0  0  0
  -30.2374   -8.1703   -4.6832 N   0  0  0  0  0  4  0  0  0  0  0  0
  -30.2896   -5.2658   -0.9736 N   0  0  0  0  0  0  0  0  0  0  0  0
  -29.1669   -4.6988   -0.2017 C   0  0  2  0  0  0  0  0  0  0  0  0
  -27.8680   -5.0522   -0.9800 C   0  0  0  0  0  0  0  0  0  0  0  0
  -27.8514   -6.0118   -1.7578 O   0  0  0  0  0  0  0  0  0  0  0  0
  -29.1967   -5.0123    1.3017 C   0  0  0  0  0  0  0  0  0  0  0  0
  -27.9058   -4.5569    2.0140 C   0  0  0  0  0  0  0  0  0  0  0  0
  -27.8638   -4.8674    3.5157 C   0  0  0  0  0  0  0  0  0  0  0  0
  -28.6913   -3.9076    4.3547 C   0  0  0  0  0  0  0  0  0  0  0  0
  -28.4408   -4.1520    5.7857 N   0  0  0  0  0  4  0  0  0  0  0  0
  -26.8151   -4.1616   -0.9049 N   0  0  0  0  0  0  0  0  0  0  0  0
  -25.4416   -4.6521   -1.1369 C   0  0  2  0  0  0  0  0  0  0  0  0
  -24.7233   -5.2602    0.0888 C   0  0  0  0  0  0  0  0  0  0  0  0
  -25.3272   -5.4901    1.1364 O   0  0  0  0  0  0  0  0  0  0  0  0
  -24.5601   -3.5044   -1.6880 C   0  0  0  0  0  0  0  0  0  0  0  0
  -25.2341   -2.1296   -1.6333 C   0  0  0  0  0  0  0  0  0  0  0  0
  -24.3132   -1.0032   -2.1009 C   0  0  0  0  0  0  0  0  0  0  0  0
  -25.0229    0.2333   -2.3994 N   0  0  0  0  0  0  0  0  0  0  0  0
  -25.3259    1.1869   -1.4897 C   0  0  0  0  0  0  0  0  0  0  0  0
  -24.8500    1.2969   -0.3011 N   0  0  0  0  0  0  0  0  0  0  0  0
  -26.2024    2.0764   -1.9987 N   0  0  0  0  0  0  0  0  0  0  0  0
  -23.3606   -5.4735   -0.0166 N   0  0  0  0  0  0  0  0  0  0  0  0
  -22.6172   -5.9757    1.1671 C   0  0  2  0  0  0  0  0  0  0  0  0
  -21.1082   -6.0789    0.7953 C   0  0  0  0  0  0  0  0  0  0  0  0
  -20.7021   -5.6898   -0.3062 O   0  0  0  0  0  0  0  0  0  0  0  0
  -23.2461   -7.2845    1.7100 C   0  0  0  0  0  0  0  0  0  0  0  0
  -24.5541   -7.7073    1.0654 C   0  0  0  0  0  0  0  0  0  0  0  0
  -25.1439   -6.8839    0.0898 C   0  0  0  0  0  0  0  0  0  0  0  0
  -25.2012   -8.9026    1.4112 C   0  0  0  0  0  0  0  0  0  0  0  0
  -26.3253   -7.2676   -0.5515 C   0  0  0  0  0  0  0  0  0  0  0  0
  -26.3747   -9.2898    0.7598 C   0  0  0  0  0  0  0  0  0  0  0  0
  -26.9271   -8.4732   -0.2168 C   0  0  0  0  0  0  0  0  0  0  0  0
  -28.0683   -8.8977   -0.8251 O   0  0  0  0  0  0  0  0  0  0  0  0
  -20.2438   -6.4877    1.7743 N   0  0  0  0  0  0  0  0  0  0  0  0
  -19.0312   -5.7679    2.1791 C   0  0  2  0  0  0  0  0  0  0  0  0
  -17.8034   -6.6240    1.7880 C   0  0  0  0  0  0  0  0  0  0  0  0
  -17.9085   -7.6294    1.0889 O   0  0  0  0  0  0  0  0  0  0  0  0
  -19.0378   -5.5326    3.6945 C   0  0  0  0  0  0  0  0  0  0  0  0
  -17.8771   -4.7899    4.0662 O   0  0  0  0  0  0  0  0  0  0  0  0
  -16.6011   -6.1783    2.2920 N   0  0  0  0  0  0  0  0  0  0  0  0
  -15.6682   -7.0442    3.0398 C   0  0  2  0  0  0  0  0  0  0  0  0
  -14.4011   -6.2320    3.4446 C   0  0  0  0  0  0  0  0  0  0  0  0
  -13.5985   -5.7863    2.6270 O   0  0  0  0  0  0  0  0  0  0  0  0
  -15.1922   -8.2644    2.2157 C   0  0  0  0  0  0  0  0  0  0  0  0
  -13.6750   -8.5015    2.1198 C   0  0  0  0  0  0  0  0  0  0  0  0
  -13.1772   -9.1701    0.8385 C   0  0  0  0  0  0  0  0  0  0  0  0
  -13.0270  -10.5957    1.0490 N   0  0  0  0  0  0  0  0  0  0  0  0
  -11.9755  -11.2844    0.5547 C   0  0  0  0  0  0  0  0  0  0  0  0
  -12.3640  -12.4971    0.1085 N   0  0  0  0  0  0  0  0  0  0  0  0
  -10.7784  -10.8391    0.4652 N   0  0  0  0  0  0  0  0  0  0  0  0
  -16.7317   -5.6225    4.8306 C   0  0  0  0  0  0  0  0  0  0  0  0
  -14.3425   -5.9267    4.7950 N   0  0  0  0  0  0  0  0  0  0  0  0
  -17.8279   -6.1491    4.9261 O   0  0  0  0  0  0  0  0  0  0  0  0
  -15.5100   -6.0018    5.7136 C   0  0  1  0  0  0  0  0  0  0  0  0
  -15.4687   -4.9674    6.8806 C   0  0  0  0  0  0  0  0  0  0  0  0
  -17.9256   -4.9244    7.8457 C   0  0  0  0  0  0  0  0  0  0  0  0
  -18.8115   -6.0011    8.4179 C   0  0  0  0  0  0  0  0  0  0  0  0
  -16.4282   -5.2252    8.0702 C   0  0  0  0  0  0  0  0  0  0  0  0
  -15.6414   -7.4447    6.2188 C   0  0  0  0  0  0  0  0  0  0  0  0
  -16.5698   -4.5186    4.0178 N   0  0  0  0  0  0  0  0  0  0  0  0
  -17.7359   -3.8732    3.4161 C   0  0  2  0  0  0  0  0  0  0  0  0
  -18.5558   -4.6256    2.3341 C   0  0  0  0  0  0  0  0  0  0  0  0
  -19.7896   -4.4642    2.3054 O   0  0  0  0  0  0  0  0  0  0  0  0
  -17.3687   -2.4385    2.9739 C   0  0  0  0  0  0  0  0  0  0  0  0
  -17.3989   -2.2260    1.4576 C   0  0  0  0  0  0  0  0  0  0  0  0
  -18.4050   -3.1294    0.7723 C   0  0  0  0  0  0  0  0  0  0  0  0
  -19.5760   -2.8007    0.5701 O   0  0  0  0  0  0  0  0  0  0  0  0
  -17.9429   -4.3555    0.4140 N   0  0  0  0  0  0  0  0  0  0  0  0
  -18.0672   -5.3148    1.2786 N   0  0  0  0  0  0  0  0  0  0  0  0
  -16.7419   -5.7570    0.8336 C   0  0  2  0  0  0  0  0  0  0  0  0
  -16.2821   -6.9555    1.6842 C   0  0  0  0  0  0  0  0  0  0  0  0
  -15.4212   -6.8501    2.5522 O   0  0  0  0  0  0  0  0  0  0  0  0
  -15.7401   -4.5947    0.7263 C   0  0  0  0  0  0  0  0  0  0  0  0
  -15.9760   -3.3864    1.6486 C   0  0  1  0  0  0  0  0  0  0  0  0
  -16.5060   -2.1819    0.8852 C   0  0  0  0  0  0  0  0  0  0  0  0
  -16.9884   -3.7721    2.7350 C   0  0  0  0  0  0  0  0  0  0  0  0
  -16.9329   -8.1528    1.4528 N   0  0  0  0  0  0  0  0  0  0  0  0
  -18.0608   -8.5545    2.3514 C   0  0  2  0  0  0  0  0  0  0  0  0
  -17.4288   -9.3119    3.5464 C   0  0  0  0  0  0  0  0  0  0  0  0
  -16.2450   -9.6690    3.4755 O   0  0  0  0  0  0  0  0  0  0  0  0
  -18.9852   -9.5162    1.5971 C   0  0  0  0  0  0  0  0  0  0  0  0
  -20.1608  -10.0573    2.4291 C   0  0  1  0  0  0  0  0  0  0  0  0
  -19.7458  -11.3526    3.1297 C   0  0  0  0  0  0  0  0  0  0  0  0
  -20.6245   -9.0382    3.4733 C   0  0  0  0  0  0  0  0  0  0  0  0
  -20.3608  -10.6996    4.9643 C   0  0  0  0  0  0  0  0  0  0  0  0
  -18.0661   -9.6628    4.6877 N   0  0  0  0  0  0  0  0  0  0  0  0
  -21.1167  -10.6678    3.9972 O   0  0  0  0  0  0  0  0  0  0  0  0
  -19.4259   -9.5034    5.3114 C   0  0  1  0  0  0  0  0  0  0  0  0
  -20.1585   -8.2048    4.8893 C   0  0  0  0  0  0  0  0  0  0  0  0
  -20.6386   -6.2935    6.6152 C   0  0  0  0  0  0  0  0  0  0  0  0
  -19.9208   -6.5746    7.9060 C   0  0  0  0  0  0  0  0  0  0  0  0
  -21.1565   -7.5431    5.8645 C   0  0  0  0  0  0  0  0  0  0  0  0
  -19.1935   -9.6131    6.8285 C   0  0  0  0  0  0  0  0  0  0  0  0
  -20.2701  -11.8081    5.7698 N   0  0  0  0  0  0  0  0  0  0  0  0
  -19.0278  -12.2492    6.4312 C   0  0  2  0  0  0  0  0  0  0  0  0
  -17.7113  -11.4264    6.3076 C   0  0  0  0  0  0  0  0  0  0  0  0
  -17.3485  -10.9408    5.2355 O   0  0  0  0  0  0  0  0  0  0  0  0
  -18.7674  -13.7725    6.3119 C   0  0  0  0  0  0  0  0  0  0  0  0
  -17.5307  -14.2006    5.5594 C   0  0  0  0  0  0  0  0  0  0  0  0
  -17.5867  -15.1586    4.5396 C   0  0  0  0  0  0  0  0  0  0  0  0
  -16.2976  -13.5895    5.8372 C   0  0  0  0  0  0  0  0  0  0  0  0
  -16.4295  -15.5352    3.8525 C   0  0  0  0  0  0  0  0  0  0  0  0
  -15.1446  -13.9538    5.1359 C   0  0  0  0  0  0  0  0  0  0  0  0
  -15.2085  -14.9351    4.1508 C   0  0  0  0  0  0  0  0  0  0  0  0
  -16.9179  -11.3521    7.4434 N   0  0  0  0  0  0  0  0  0  0  0  0
  -15.6175  -12.0455    7.4331 C   0  0  2  0  0  0  0  0  0  0  0  0
  -15.7360  -13.3821    6.6606 C   0  0  0  0  0  0  0  0  0  0  0  0
  -15.4622  -14.4650    7.1676 O   0  0  0  0  0  0  0  0  0  0  0  0
  -15.1106  -12.3532    8.8538 C   0  0  0  0  0  0  0  0  0  0  0  0
  -13.6016  -12.1988    9.0669 C   0  0  0  0  0  0  0  0  0  0  0  0
  -13.1432  -12.3754   10.5158 C   0  0  0  0  0  0  0  0  0  0  0  0
  -13.9941  -13.3607   11.1801 N   0  0  0  0  0  0  0  0  0  0  0  0
  -14.8381  -12.9638   12.1624 C   0  0  0  0  0  0  0  0  0  0  0  0
  -14.3621  -11.8851   12.8160 N   0  0  0  0  0  0  0  0  0  0  0  0
  -15.9584  -13.5176   12.4382 N   0  0  0  0  0  0  0  0  0  0  0  0
  -16.3382  -13.2624    5.4178 N   0  0  0  0  0  0  0  0  0  0  0  0
  -16.2958  -14.3889    4.4869 C   0  0  2  0  0  0  0  0  0  0  0  0
  -17.7401  -14.8443    4.2828 C   0  0  0  0  0  0  0  0  0  0  0  0
  -18.4064  -15.0359    5.4381 O   0  0  0  0  0  0  0  0  0  0  0  0
  -15.4780  -15.5296    5.0591 C   0  0  0  0  0  0  0  0  0  0  0  0
  -18.2929  -14.9927    3.2001 O   0  0  0  0  0  0  0  0  0  0  0  0
  -23.9147    0.8930   -0.3085 H   0  0  0  0  0  0  0  0  0  0  0  0
  -10.7733   -9.8325    0.6360 H   0  0  0  0  0  0  0  0  0  0  0  0
  -15.8946  -14.5276   12.3086 H   0  0  0  0  0  0  0  0  0  0  0  0
  1  2  2  0
  1  3  1  0
  4  1  1  0
  5  4  1  0
  6  5  1  0
  5  8  1  6
  6  7  2  0
 13  6  1  0
  8  9  1  0
  9 10  1  0
 10 11  1  0
 11 12  1  0
 14 13  1  0
 15 14  1  0
 14 17  1  1
 15 16  2  0
 22 15  1  0
 17 18  1  0
 18 19  1  0
 19 20  1  0
 20 21  1  0
 23 22  1  0
 24 23  1  0
 23 26  1  1
 24 25  2  0
 33 24  1  0
 26 27  1  0
 27 28  1  0
 28 29  1  0
 29 30  1  0
 30 31  2  0
 30 32  1  0
 34 33  1  0
 35 34  1  0
 34 37  1  6
 35 36  2  0
 45 35  1  0
 37 38  1  0
 38 39  2  0
 38 40  1  0
 39 41  1  0
 40 42  2  0
 41 43  2  0
 42 43  1  0
 43 44  1  0
 46 45  1  0
 47 46  1  0
 46 49  1  1
 47 48  2  0
 51 47  1  0
 49 50  1  0
 52 51  1  0
 53 52  1  0
 52 55  1  6
 53 54  2  0
 63 53  1  0
 55 56  1  0
 56 57  1  0
 57 58  1  0
 58 59  1  0
 59 60  1  0
 59 61  2  0
 62 64  2  0
 62 65  1  0
 71 62  1  0
 65 63  1  0
 65 66  1  0
 65 70  1  1
 66 69  1  0
 67 68  1  0
 69 67  1  0
 68102  2  0
 72 71  1  0
 73 72  1  0
 72 75  1  6
 73 74  2  0
 80 73  1  0
 75 76  1  0
 76 77  1  0
 77 78  2  0
 77 79  1  0
 81 80  1  0
 82 81  1  0
 81 84  1  1
 82 83  2  0
 88 82  1  0
 84 85  1  0
 85 86  1  6
 85 87  1  0
 89 88  1  0
 90 89  1  0
 89 92  1  6
 90 91  2  0
 97 90  1  0
 92 93  1  0
 93 94  1  1
 93 95  1  0
 96 98  2  0
 99 96  1  0
 96105  1  0
 97 99  1  0
 99100  1  0
 99104  1  1
100103  1  0
102101  1  0
101103  1  0
105106  1  0
106107  1  0
106109  1  6
107108  2  0
107116  1  0
109110  1  0
110111  2  0
110112  1  0
111113  1  0
112114  2  0
113115  2  0
114115  1  0
116117  1  0
117118  1  0
117120  1  1
118119  2  0
118127  1  0
120121  1  0
121122  1  0
122123  1  0
123124  1  0
124125  1  0
124126  2  0
127128  1  0
128129  1  0
128131  1  1
129130  1  0
129132  2  0
 31133  1  0
 61134  1  0
126135  1  0
M  CHG  2  12   1  21   1
M  END
$$$$
