
     RDKit          3D

135137  0  0  0  0  0  0  0  0999 V2000
  -35.1972   -4.6588   -2.5331 C   0  0  0  0  0  0  0  0  0  0  0  0
  -36.1129   -4.0145   -3.0343 O   0  0  0  0  0  0  0  0  0  0  0  0
  -35.2776   -6.1427   -2.3000 C   0  0  0  0  0  0  0  0  0  0  0  0
  -34.0007   -4.1002   -2.1174 N   0  0  0  0  0  0  0  0  0  0  0  0
  -32.8557   -4.9175   -1.7282 C   0  0  2  0  0  0  0  0  0  0  0  0
  -31.6681   -3.9952   -1.3252 C   0  0  0  0  0  0  0  0  0  0  0  0
  -31.0930   -3.2573   -2.1225 O   0  0  0  0  0  0  0  0  0  0  0  0
  -32.4844   -5.9637   -2.7998 C   0  0  0  0  0  0  0  0  0  0  0  0
  -31.2294   -6.7946   -2.4772 C   0  0  0  0  0  0  0  0  0  0  0  0
  -31.5185   -7.7856   -1.3404 C   0  0  0  0  0  0  0  0  0  0  0  0
  -30.3178   -8.6337   -0.9295 C   0  0  0  0  0  0  0  0  0  0  0  0
  -30.6512   -9.4944    0.2300 N   0  0  0  0  0  4  0  0  0  0  0  0
  -31.3221   -4.0664    0.0166 N   0  0  0  0  0  0  0  0  0  0  0  0
  -30.2753   -3.2032    0.5970 C   0  0  2  0  0  0  0  0  0  0  0  0
  -29.0301   -3.3316   -0.3254 C   0  0  0  0  0  0  0  0  0  0  0  0
  -29.0049   -4.1832   -1.2200 O   0  0  0  0  0  0  0  0  0  0  0  0
  -30.0572   -3.3831    2.1068 C   0  0  0  0  0  0  0  0  0  0  0  0
  -29.8694   -2.0328    2.8299 C   0  0  0  0  0  0  0  0  0  0  0  0
  -31.1770   -1.3136    3.1849 C   0  0  0  0  0  0  0  0  0  0  0  0
  -30.9648   -0.0096    3.9362 C   0  0  0  0  0  0  0  0  0  0  0  0
  -32.2596    0.6596    4.1504 N   0  0  0  0  0  4  0  0  0  0  0  0
  -28.0550   -2.3589   -0.2227 N   0  0  0  0  0  0  0  0  0  0  0  0
  -26.7899   -2.5290   -0.9651 C   0  0  2  0  0  0  0  0  0  0  0  0
  -25.4971   -2.4845   -0.1197 C   0  0  0  0  0  0  0  0  0  0  0  0
  -25.3658   -1.6871    0.8087 O   0  0  0  0  0  0  0  0  0  0  0  0
  -26.6785   -1.4477   -2.0679 C   0  0  0  0  0  0  0  0  0  0  0  0
  -25.2393   -1.0103   -2.3583 C   0  0  0  0  0  0  0  0  0  0  0  0
  -24.7902   -1.3659   -3.7752 C   0  0  0  0  0  0  0  0  0  0  0  0
  -25.8968   -1.6910   -4.6646 N   0  0  0  0  0  0  0  0  0  0  0  0
  -25.7612   -2.2144   -5.9042 C   0  0  0  0  0  0  0  0  0  0  0  0
  -26.5883   -2.1049   -6.8815 N   0  0  0  0  0  0  0  0  0  0  0  0
  -24.5895   -2.8714   -6.0236 N   0  0  0  0  0  0  0  0  0  0  0  0
  -24.4678   -3.3309   -0.4908 N   0  0  0  0  0  0  0  0  0  0  0  0
  -23.4599   -3.7270    0.5258 C   0  0  2  0  0  0  0  0  0  0  0  0
  -22.2457   -4.3707   -0.2073 C   0  0  0  0  0  0  0  0  0  0  0  0
  -22.3566   -5.4677   -0.7674 O   0  0  0  0  0  0  0  0  0  0  0  0
  -24.0957   -4.6077    1.6318 C   0  0  0  0  0  0  0  0  0  0  0  0
  -24.8853   -5.8107    1.1477 C   0  0  0  0  0  0  0  0  0  0  0  0
  -25.9549   -6.2947    1.9219 C   0  0  0  0  0  0  0  0  0  0  0  0
  -24.5835   -6.4625   -0.0569 C   0  0  0  0  0  0  0  0  0  0  0  0
  -26.7267   -7.3738    1.4811 C   0  0  0  0  0  0  0  0  0  0  0  0
  -25.3642   -7.5323   -0.5012 C   0  0  0  0  0  0  0  0  0  0  0  0
  -26.4299   -7.9789    0.2673 C   0  0  0  0  0  0  0  0  0  0  0  0
  -27.1624   -9.0211   -0.2119 O   0  0  0  0  0  0  0  0  0  0  0  0
  -21.1063   -3.6210   -0.3186 N   0  0  0  0  0  0  0  0  0  0  0  0
  -19.7715   -4.1581   -0.6053 C   0  0  2  0  0  0  0  0  0  0  0  0
  -19.5554   -5.4169    0.2677 C   0  0  0  0  0  0  0  0  0  0  0  0
  -20.3222   -5.7134    1.1813 O   0  0  0  0  0  0  0  0  0  0  0  0
  -18.6996   -3.1109   -0.2793 C   0  0  0  0  0  0  0  0  0  0  0  0
  -17.8092   -2.9799   -1.3870 O   0  0  0  0  0  0  0  0  0  0  0  0
  -18.4405   -6.1605   -0.0523 N   0  0  0  0  0  0  0  0  0  0  0  0
  -18.0070   -7.3401    0.7222 C   0  0  2  0  0  0  0  0  0  0  0  0
  -16.6410   -7.8576    0.1784 C   0  0  0  0  0  0  0  0  0  0  0  0
  -16.4498   -8.1359   -1.0036 O   0  0  0  0  0  0  0  0  0  0  0  0
  -19.0124   -8.5134    0.6400 C   0  0  0  0  0  0  0  0  0  0  0  0
  -18.5038   -9.9072    1.0473 C   0  0  0  0  0  0  0  0  0  0  0  0
  -18.2660  -10.1278    2.5410 C   0  0  0  0  0  0  0  0  0  0  0  0
  -18.6526  -11.4741    2.9114 N   0  0  0  0  0  0  0  0  0  0  0  0
  -18.1654  -12.0795    4.0161 C   0  0  0  0  0  0  0  0  0  0  0  0
  -17.4042  -11.2270    4.7334 N   0  0  0  0  0  0  0  0  0  0  0  0
  -18.4262  -13.2806    4.3747 N   0  0  0  0  0  0  0  0  0  0  0  0
  -16.7043   -7.8078    3.2673 C   0  0  0  0  0  0  0  0  0  0  0  0
  -15.6210   -7.8294    1.1160 N   0  0  0  0  0  0  0  0  0  0  0  0
  -16.5856   -7.9497    4.4730 O   0  0  0  0  0  0  0  0  0  0  0  0
  -15.6782   -7.0482    2.3805 C   0  0  1  0  0  0  0  0  0  0  0  0
  -16.2290   -5.5989    2.2083 C   0  0  0  0  0  0  0  0  0  0  0  0
  -16.8219   -4.7960    4.6525 C   0  0  0  0  0  0  0  0  0  0  0  0
  -15.9974   -4.6666    5.9074 C   0  0  0  0  0  0  0  0  0  0  0  0
  -15.9701   -4.6151    3.3777 C   0  0  0  0  0  0  0  0  0  0  0  0
  -14.2886   -7.0697    3.0308 C   0  0  0  0  0  0  0  0  0  0  0  0
  -17.8756   -8.1889    2.6441 N   0  0  0  0  0  0  0  0  0  0  0  0
  -19.0335   -8.5913    3.4413 C   0  0  2  0  0  0  0  0  0  0  0  0
  -18.9760   -9.9026    4.2697 C   0  0  0  0  0  0  0  0  0  0  0  0
  -19.5536   -9.9342    5.3718 O   0  0  0  0  0  0  0  0  0  0  0  0
  -20.3155   -8.5020    2.5826 C   0  0  0  0  0  0  0  0  0  0  0  0
  -21.1116   -7.2092    2.7827 C   0  0  0  0  0  0  0  0  0  0  0  0
  -20.2428   -6.0729    3.2846 C   0  0  0  0  0  0  0  0  0  0  0  0
  -20.6039   -4.8941    3.2729 O   0  0  0  0  0  0  0  0  0  0  0  0
  -19.0095   -6.4301    3.7282 N   0  0  0  0  0  0  0  0  0  0  0  0
  -18.5154  -11.1045    3.8563 N   0  0  0  0  0  0  0  0  0  0  0  0
  -17.8005  -11.6088    2.6796 C   0  0  2  0  0  0  0  0  0  0  0  0
  -16.3193  -11.1943    2.7553 C   0  0  0  0  0  0  0  0  0  0  0  0
  -15.8528  -10.3017    2.0544 O   0  0  0  0  0  0  0  0  0  0  0  0
  -18.5200  -11.2669    1.3637 C   0  0  0  0  0  0  0  0  0  0  0  0
  -20.0579  -11.3000    1.3836 C   0  0  1  0  0  0  0  0  0  0  0  0
  -20.5921  -12.4479    2.2271 C   0  0  0  0  0  0  0  0  0  0  0  0
  -20.5828   -9.9762    1.9547 C   0  0  0  0  0  0  0  0  0  0  0  0
  -15.5504  -11.8495    3.6987 N   0  0  0  0  0  0  0  0  0  0  0  0
  -15.3100  -11.1960    5.0240 C   0  0  2  0  0  0  0  0  0  0  0  0
  -14.0568  -10.3000    4.8568 C   0  0  0  0  0  0  0  0  0  0  0  0
  -13.3528  -10.4308    3.8462 O   0  0  0  0  0  0  0  0  0  0  0  0
  -15.0032  -12.2755    6.0674 C   0  0  0  0  0  0  0  0  0  0  0  0
  -15.2073  -13.7182    5.5736 C   0  0  1  0  0  0  0  0  0  0  0  0
  -16.5721  -13.8443    4.8940 C   0  0  0  0  0  0  0  0  0  0  0  0
  -14.1082  -14.1359    4.5930 C   0  0  0  0  0  0  0  0  0  0  0  0
  -13.4052   -9.5803    8.2613 C   0  0  0  0  0  0  0  0  0  0  0  0
  -13.6188   -9.3776    5.7452 N   0  0  0  0  0  0  0  0  0  0  0  0
  -12.4649   -9.1205    8.9032 O   0  0  0  0  0  0  0  0  0  0  0  0
  -14.0402   -8.8032    7.0703 C   0  0  1  0  0  0  0  0  0  0  0  0
  -15.5744   -8.7942    7.2879 C   0  0  0  0  0  0  0  0  0  0  0  0
  -16.9145   -6.5474    7.4224 C   0  0  0  0  0  0  0  0  0  0  0  0
  -16.0257   -5.3956    7.0429 C   0  0  0  0  0  0  0  0  0  0  0  0
  -16.2106   -7.7016    8.1746 C   0  0  0  0  0  0  0  0  0  0  0  0
  -13.4025   -7.4040    7.1289 C   0  0  0  0  0  0  0  0  0  0  0  0
  -13.9740  -10.7878    8.5840 N   0  0  0  0  0  0  0  0  0  0  0  0
  -15.3420  -11.1851    8.2017 C   0  0  2  0  0  0  0  0  0  0  0  0
  -15.6823  -12.6608    7.8383 C   0  0  0  0  0  0  0  0  0  0  0  0
  -16.2205  -12.9581    6.7711 O   0  0  0  0  0  0  0  0  0  0  0  0
  -16.0358  -10.1824    7.2448 C   0  0  0  0  0  0  0  0  0  0  0  0
  -15.2413   -9.7108    6.0510 C   0  0  0  0  0  0  0  0  0  0  0  0
  -14.9683   -8.3536    5.8405 C   0  0  0  0  0  0  0  0  0  0  0  0
  -14.7064  -10.6486    5.1535 C   0  0  0  0  0  0  0  0  0  0  0  0
  -14.2255   -7.9407    4.7311 C   0  0  0  0  0  0  0  0  0  0  0  0
  -13.9476  -10.2351    4.0547 C   0  0  0  0  0  0  0  0  0  0  0  0
  -13.7166   -8.8799    3.8372 C   0  0  0  0  0  0  0  0  0  0  0  0
  -15.4396  -13.6122    8.8186 N   0  0  0  0  0  0  0  0  0  0  0  0
  -16.5879  -14.3491    9.3756 C   0  0  2  0  0  0  0  0  0  0  0  0
  -16.4755  -14.4174   10.9184 C   0  0  0  0  0  0  0  0  0  0  0  0
  -16.9511  -13.5591   11.6544 O   0  0  0  0  0  0  0  0  0  0  0  0
  -16.6743  -15.7878    8.8346 C   0  0  0  0  0  0  0  0  0  0  0  0
  -17.3547  -15.9432    7.4711 C   0  0  0  0  0  0  0  0  0  0  0  0
  -18.1021  -14.6987    6.9883 C   0  0  0  0  0  0  0  0  0  0  0  0
  -18.7114  -14.9693    5.6878 N   0  0  0  0  0  0  0  0  0  0  0  0
  -19.4787  -14.0220    5.0970 C   0  0  0  0  0  0  0  0  0  0  0  0
  -20.0935  -14.5006    3.9968 N   0  0  0  0  0  0  0  0  0  0  0  0
  -19.6287  -12.8250    5.5239 N   0  0  0  0  0  0  0  0  0  0  0  0
  -15.9490  -15.6090   11.3921 N   0  0  0  0  0  0  0  0  0  0  0  0
  -16.8510  -16.6437   11.8956 C   0  0  2  0  0  0  0  0  0  0  0  0
  -16.5861  -17.8989   11.0655 C   0  0  0  0  0  0  0  0  0  0  0  0
  -17.5266  -18.8506   11.2241 O   0  0  0  0  0  0  0  0  0  0  0  0
  -18.2978  -16.2218   11.7337 C   0  0  0  0  0  0  0  0  0  0  0  0
  -15.6519  -18.0541   10.2890 O   0  0  0  0  0  0  0  0  0  0  0  0
  -27.4376   -1.6771   -6.5157 H   0  0  0  0  0  0  0  0  0  0  0  0
  -19.4058  -13.4919    4.1792 H   0  0  0  0  0  0  0  0  0  0  0  0
  -20.0801  -12.8302    6.4390 H   0  0  0  0  0  0  0  0  0  0  0  0
  1  2  2  0
  1  3  1  0
  4  1  1  0
  5  4  1  0
  6  5  1  0
  5  8  1  6
  6  7  2  0
 13  6  1  0
  8  9  1  0
  9 10  1  0
 10 11  1  0
 11 12  1  0
 14 13  1  0
 15 14  1  0
 14 17  1  1
 15 16  2  0
 22 15  1  0
 17 18  1  0
 18 19  1  0
 19 20  1  0
 20 21  1  0
 23 22  1  0
 24 23  1  0
 23 26  1  6
 24 25  2  0
 33 24  1  0
 26 27  1  0
 27 28  1  0
 28 29  1  0
 29 30  1  0
 30 31  2  0
 30 32  1  0
 34 33  1  0
 35 34  1  0
 34 37  1  1
 35 36  2  0
 45 35  1  0
 37 38  1  0
 38 39  2  0
 38 40  1  0
 39 41  1  0
 40 42  2  0
 41 43  2  0
 42 43  1  0
 43 44  1  0
 46 45  1  0
 47 46  1  0
 46 49  1  1
 47 48  2  0
 51 47  1  0
 49 50  1  0
 52 51  1  0
 53 52  1  0
 52 55  1  6
 53 54  2  0
 63 53  1  0
 55 56  1  0
 56 57  1  0
 57 58  1  0
 58 59  1  0
 59 60  1  0
 59 61  2  0
 62 64  2  0
 62 65  1  0
 71 62  1  0
 65 63  1  0
 65 66  1  0
 65 70  1  1
 66 69  1  0
 67 68  1  0
 69 67  1  0
 68102  2  0
 72 71  1  0
 73 72  1  0
 72 75  1  6
 73 74  2  0
 80 73  1  0
 75 76  1  0
 76 77  1  0
 77 78  2  0
 77 79  1  0
 81 80  1  0
 82 81  1  0
 81 84  1  6
 82 83  2  0
 88 82  1  0
 84 85  1  0
 85 86  1  1
 85 87  1  0
 89 88  1  0
 90 89  1  0
 89 92  1  1
 90 91  2  0
 97 90  1  0
 92 93  1  0
 93 94  1  6
 93 95  1  0
 96 98  2  0
 99 96  1  0
 96105  1  0
 97 99  1  0
 99100  1  0
 99104  1  6
100103  1  0
102101  1  0
101103  1  0
105106  1  0
106107  1  0
106109  1  6
107108  2  0
107116  1  0
109110  1  0
110111  2  0
110112  1  0
111113  1  0
112114  2  0
113115  2  0
114115  1  0
116117  1  0
117118  1  0
117120  1  6
118119  2  0
118127  1  0
120121  1  0
121122  1  0
122123  1  0
123124  1  0
124125  1  0
124126  2  0
127128  1  0
128129  1  0
128131  1  6
129130  1  0
129132  2  0
 31133  1  0
 61134  1  0
126135  1  0
M  CHG  2  12   1  21   1
M  END
$$$$
