
     RDKit          3D

135137  0  0  0  0  0  0  0  0999 V2000
  -35.1511   -5.5391   -4.9233 C   0  0  0  0  0  0  0  0  0  0  0  0
  -34.5598   -6.3842   -5.5873 O   0  0  0  0  0  0  0  0  0  0  0  0
  -36.5532   -5.7368   -4.4153 C   0  0  0  0  0  0  0  0  0  0  0  0
  -34.6079   -4.3137   -4.5775 N   0  0  0  0  0  0  0  0  0  0  0  0
  -33.1863   -4.0220   -4.7344 C   0  0  2  0  0  0  0  0  0  0  0  0
  -32.6148   -3.4712   -3.3953 C   0  0  0  0  0  0  0  0  0  0  0  0
  -33.2083   -2.6473   -2.7025 O   0  0  0  0  0  0  0  0  0  0  0  0
  -32.9000   -3.1099   -5.9455 C   0  0  0  0  0  0  0  0  0  0  0  0
  -32.7772   -3.8489   -7.2903 C   0  0  0  0  0  0  0  0  0  0  0  0
  -34.1655   -4.2397   -7.8175 C   0  0  0  0  0  0  0  0  0  0  0  0
  -34.3762   -5.7438   -7.9694 C   0  0  0  0  0  0  0  0  0  0  0  0
  -35.6374   -6.0300   -8.6932 N   0  0  0  0  0  4  0  0  0  0  0  0
  -31.3821   -4.0011   -3.0418 N   0  0  0  0  0  0  0  0  0  0  0  0
  -31.0513   -4.3359   -1.6432 C   0  0  2  0  0  0  0  0  0  0  0  0
  -29.5790   -4.8361   -1.6412 C   0  0  0  0  0  0  0  0  0  0  0  0
  -29.0996   -5.3522   -0.6263 O   0  0  0  0  0  0  0  0  0  0  0  0
  -32.0939   -5.2068   -0.9264 C   0  0  0  0  0  0  0  0  0  0  0  0
  -31.9495   -6.6998   -1.2893 C   0  0  0  0  0  0  0  0  0  0  0  0
  -32.9236   -7.6304   -0.5554 C   0  0  0  0  0  0  0  0  0  0  0  0
  -32.6913   -9.1029   -0.8511 C   0  0  0  0  0  0  0  0  0  0  0  0
  -31.3629   -9.5074   -0.3593 N   0  0  0  0  0  4  0  0  0  0  0  0
  -28.9049   -4.8449   -2.8466 N   0  0  0  0  0  0  0  0  0  0  0  0
  -27.4755   -4.4747   -2.8728 C   0  0  2  0  0  0  0  0  0  0  0  0
  -26.7686   -4.4042   -1.5005 C   0  0  0  0  0  0  0  0  0  0  0  0
  -27.4041   -4.4691   -0.4484 O   0  0  0  0  0  0  0  0  0  0  0  0
  -27.3006   -3.1045   -3.5728 C   0  0  0  0  0  0  0  0  0  0  0  0
  -25.8377   -2.6832   -3.7447 C   0  0  0  0  0  0  0  0  0  0  0  0
  -25.5657   -1.2729   -3.2224 C   0  0  0  0  0  0  0  0  0  0  0  0
  -25.5504   -0.2637   -4.2725 N   0  0  0  0  0  0  0  0  0  0  0  0
  -24.7908    0.8550   -4.2554 C   0  0  0  0  0  0  0  0  0  0  0  0
  -24.9281    1.8677   -3.4765 N   0  0  0  0  0  0  0  0  0  0  0  0
  -23.8014    0.7787   -5.1686 N   0  0  0  0  0  0  0  0  0  0  0  0
  -25.4008   -4.1979   -1.5021 N   0  0  0  0  0  0  0  0  0  0  0  0
  -24.5650   -4.9071   -0.4998 C   0  0  2  0  0  0  0  0  0  0  0  0
  -23.0783   -4.4966   -0.7172 C   0  0  0  0  0  0  0  0  0  0  0  0
  -22.7500   -3.8093   -1.6915 O   0  0  0  0  0  0  0  0  0  0  0  0
  -24.8308   -6.4341   -0.5281 C   0  0  0  0  0  0  0  0  0  0  0  0
  -25.7531   -6.9656    0.5545 C   0  0  0  0  0  0  0  0  0  0  0  0
  -27.0496   -6.4360    0.6818 C   0  0  0  0  0  0  0  0  0  0  0  0
  -25.3543   -7.9771    1.4405 C   0  0  0  0  0  0  0  0  0  0  0  0
  -27.9356   -6.9350    1.6411 C   0  0  0  0  0  0  0  0  0  0  0  0
  -26.2458   -8.4827    2.3896 C   0  0  0  0  0  0  0  0  0  0  0  0
  -27.5286   -7.9617    2.4825 C   0  0  0  0  0  0  0  0  0  0  0  0
  -28.3603   -8.4919    3.4204 O   0  0  0  0  0  0  0  0  0  0  0  0
  -22.1861   -4.8105    0.2718 N   0  0  0  0  0  0  0  0  0  0  0  0
  -20.7339   -4.6213    0.1847 C   0  0  2  0  0  0  0  0  0  0  0  0
  -20.1118   -4.9908    1.5522 C   0  0  0  0  0  0  0  0  0  0  0  0
  -20.5727   -4.5692    2.6107 O   0  0  0  0  0  0  0  0  0  0  0  0
  -20.4109   -3.1610   -0.1543 C   0  0  0  0  0  0  0  0  0  0  0  0
  -20.8575   -2.3160    0.9057 O   0  0  0  0  0  0  0  0  0  0  0  0
  -19.0064   -5.8102    1.4843 N   0  0  0  0  0  0  0  0  0  0  0  0
  -18.2083   -6.1893    2.6669 C   0  0  2  0  0  0  0  0  0  0  0  0
  -16.7269   -5.7469    2.4698 C   0  0  0  0  0  0  0  0  0  0  0  0
  -16.4045   -4.7296    1.8596 O   0  0  0  0  0  0  0  0  0  0  0  0
  -18.2055   -7.7152    2.9239 C   0  0  0  0  0  0  0  0  0  0  0  0
  -19.1185   -8.5807    2.0381 C   0  0  0  0  0  0  0  0  0  0  0  0
  -20.6227   -8.3965    2.2382 C   0  0  0  0  0  0  0  0  0  0  0  0
  -20.9519   -8.4974    3.6456 N   0  0  0  0  0  0  0  0  0  0  0  0
  -22.0623   -7.9283    4.1628 C   0  0  0  0  0  0  0  0  0  0  0  0
  -21.9037   -7.6778    5.4791 N   0  0  0  0  0  0  0  0  0  0  0  0
  -23.1089   -7.6137    3.4957 N   0  0  0  0  0  0  0  0  0  0  0  0
  -16.0739   -6.7722    5.5550 C   0  0  0  0  0  0  0  0  0  0  0  0
  -15.8162   -6.5188    3.1735 N   0  0  0  0  0  0  0  0  0  0  0  0
  -15.6279   -7.2461    6.5867 O   0  0  0  0  0  0  0  0  0  0  0  0
  -15.1963   -6.1032    4.4601 C   0  0  1  0  0  0  0  0  0  0  0  0
  -15.2515   -4.5670    4.7257 C   0  0  0  0  0  0  0  0  0  0  0  0
  -14.7179   -4.2963    7.2971 C   0  0  0  0  0  0  0  0  0  0  0  0
  -13.5403   -4.7140    8.1399 C   0  0  0  0  0  0  0  0  0  0  0  0
  -14.3144   -4.0205    5.8328 C   0  0  0  0  0  0  0  0  0  0  0  0
  -13.7644   -6.6522    4.5118 C   0  0  0  0  0  0  0  0  0  0  0  0
  -17.4394   -6.6616    5.3853 N   0  0  0  0  0  0  0  0  0  0  0  0
  -18.3422   -6.9408    6.5012 C   0  0  2  0  0  0  0  0  0  0  0  0
  -18.4655   -8.3897    7.0440 C   0  0  0  0  0  0  0  0  0  0  0  0
  -18.6319   -8.5533    8.2666 O   0  0  0  0  0  0  0  0  0  0  0  0
  -19.7233   -6.3030    6.2279 C   0  0  0  0  0  0  0  0  0  0  0  0
  -20.5439   -7.0272    5.1566 C   0  0  0  0  0  0  0  0  0  0  0  0
  -19.6762   -7.8678    4.2410 C   0  0  0  0  0  0  0  0  0  0  0  0
  -18.8891   -7.3811    3.4262 O   0  0  0  0  0  0  0  0  0  0  0  0
  -19.8398   -9.2119    4.3498 N   0  0  0  0  0  0  0  0  0  0  0  0
  -18.5958   -9.5211    6.3156 N   0  0  0  0  0  0  0  0  0  0  0  0
  -18.5122   -9.8726    4.8945 C   0  0  2  0  0  0  0  0  0  0  0  0
  -17.0379   -9.8914    4.4504 C   0  0  0  0  0  0  0  0  0  0  0  0
  -16.5507   -9.0012    3.7606 O   0  0  0  0  0  0  0  0  0  0  0  0
  -19.4581   -9.0280    4.0238 C   0  0  0  0  0  0  0  0  0  0  0  0
  -19.8677   -7.6518    4.5759 C   0  0  1  0  0  0  0  0  0  0  0  0
  -19.1909   -7.3462    5.9036 C   0  0  0  0  0  0  0  0  0  0  0  0
  -19.4844   -6.5673    3.5604 C   0  0  0  0  0  0  0  0  0  0  0  0
  -16.2738  -10.9443    4.9176 N   0  0  0  0  0  0  0  0  0  0  0  0
  -15.4140  -10.7406    6.1260 C   0  0  2  0  0  0  0  0  0  0  0  0
  -14.0576  -10.1894    5.6185 C   0  0  0  0  0  0  0  0  0  0  0  0
  -13.8045  -10.2333    4.4069 O   0  0  0  0  0  0  0  0  0  0  0  0
  -15.1694  -12.0940    6.8018 C   0  0  0  0  0  0  0  0  0  0  0  0
  -16.0068  -13.2528    6.2335 C   0  0  1  0  0  0  0  0  0  0  0  0
  -16.1483  -13.0944    4.7184 C   0  0  0  0  0  0  0  0  0  0  0  0
  -15.3717  -14.6100    6.5477 C   0  0  0  0  0  0  0  0  0  0  0  0
  -12.1414  -10.5673    8.5712 C   0  0  0  0  0  0  0  0  0  0  0  0
  -13.0733   -9.6741    6.3915 N   0  0  0  0  0  0  0  0  0  0  0  0
  -11.4670  -10.4053    9.5844 O   0  0  0  0  0  0  0  0  0  0  0  0
  -12.8256   -9.3719    7.8443 C   0  0  1  0  0  0  0  0  0  0  0  0
  -14.1099   -9.0209    8.6372 C   0  0  0  0  0  0  0  0  0  0  0  0
  -14.4961   -6.6166    9.6027 C   0  0  0  0  0  0  0  0  0  0  0  0
  -13.4446   -5.6779    9.0797 C   0  0  0  0  0  0  0  0  0  0  0  0
  -14.0193   -8.0676    9.8488 C   0  0  0  0  0  0  0  0  0  0  0  0
  -11.7717   -8.2507    7.8532 C   0  0  0  0  0  0  0  0  0  0  0  0
  -12.3615  -11.8169    8.0461 N   0  0  0  0  0  0  0  0  0  0  0  0
  -13.3308  -12.1026    6.9718 C   0  0  2  0  0  0  0  0  0  0  0  0
  -13.3049  -11.3125    5.6299 C   0  0  0  0  0  0  0  0  0  0  0  0
  -13.1137  -10.0962    5.5975 O   0  0  0  0  0  0  0  0  0  0  0  0
  -14.7777  -12.3219    7.4824 C   0  0  0  0  0  0  0  0  0  0  0  0
  -15.7893  -12.8276    6.4824 C   0  0  0  0  0  0  0  0  0  0  0  0
  -15.4568  -13.0225    5.1363 C   0  0  0  0  0  0  0  0  0  0  0  0
  -17.0819  -13.1712    6.9096 C   0  0  0  0  0  0  0  0  0  0  0  0
  -16.4085  -13.4974    4.2296 C   0  0  0  0  0  0  0  0  0  0  0  0
  -18.0269  -13.6638    6.0050 C   0  0  0  0  0  0  0  0  0  0  0  0
  -17.6933  -13.8164    4.6623 C   0  0  0  0  0  0  0  0  0  0  0  0
  -13.6067  -12.0307    4.4818 N   0  0  0  0  0  0  0  0  0  0  0  0
  -13.6339  -11.3117    3.1957 C   0  0  2  0  0  0  0  0  0  0  0  0
  -15.0321  -10.6867    2.9677 C   0  0  0  0  0  0  0  0  0  0  0  0
  -15.3329  -10.0997    1.9335 O   0  0  0  0  0  0  0  0  0  0  0  0
  -13.3192  -12.2358    2.0054 C   0  0  0  0  0  0  0  0  0  0  0  0
  -11.9508  -12.9230    2.0435 C   0  0  0  0  0  0  0  0  0  0  0  0
  -11.6797  -13.8647    0.8687 C   0  0  0  0  0  0  0  0  0  0  0  0
  -12.8741  -14.6617    0.5965 N   0  0  0  0  0  0  0  0  0  0  0  0
  -12.8840  -15.9810    0.9035 C   0  0  0  0  0  0  0  0  0  0  0  0
  -13.9639  -16.3080    1.6412 N   0  0  0  0  0  0  0  0  0  0  0  0
  -11.9997  -16.8290    0.5338 N   0  0  0  0  0  0  0  0  0  0  0  0
  -15.9555  -10.9988    3.9532 N   0  0  0  0  0  0  0  0  0  0  0  0
  -17.1331  -10.1504    4.1297 C   0  0  2  0  0  0  0  0  0  0  0  0
  -16.6196   -8.7336    4.3819 C   0  0  0  0  0  0  0  0  0  0  0  0
  -17.0832   -8.1949    5.5266 O   0  0  0  0  0  0  0  0  0  0  0  0
  -17.9564  -10.6125    5.3156 C   0  0  0  0  0  0  0  0  0  0  0  0
  -15.8326   -8.1246    3.6680 O   0  0  0  0  0  0  0  0  0  0  0  0
  -25.9051    2.1541   -3.5181 H   0  0  0  0  0  0  0  0  0  0  0  0
  -22.9560   -7.8092    2.5053 H   0  0  0  0  0  0  0  0  0  0  0  0
  -11.5145  -16.4934   -0.2987 H   0  0  0  0  0  0  0  0  0  0  0  0
  1  2  2  0
  1  3  1  0
  4  1  1  0
  5  4  1  0
  6  5  1  0
  5  8  1  6
  6  7  2  0
 13  6  1  0
  8  9  1  0
  9 10  1  0
 10 11  1  0
 11 12  1  0
 14 13  1  0
 15 14  1  0
 14 17  1  6
 15 16  2  0
 22 15  1  0
 17 18  1  0
 18 19  1  0
 19 20  1  0
 20 21  1  0
 23 22  1  0
 24 23  1  0
 23 26  1  1
 24 25  2  0
 33 24  1  0
 26 27  1  0
 27 28  1  0
 28 29  1  0
 29 30  1  0
 30 31  2  0
 30 32  1  0
 34 33  1  0
 35 34  1  0
 34 37  1  6
 35 36  2  0
 45 35  1  0
 37 38  1  0
 38 39  2  0
 38 40  1  0
 39 41  1  0
 40 42  2  0
 41 43  2  0
 42 43  1  0
 43 44  1  0
 46 45  1  0
 47 46  1  0
 46 49  1  1
 47 48  2  0
 51 47  1  0
 49 50  1  0
 52 51  1  0
 53 52  1  0
 52 55  1  6
 53 54  2  0
 63 53  1  0
 55 56  1  0
 56 57  1  0
 57 58  1  0
 58 59  1  0
 59 60  1  0
 59 61  2  0
 62 64  2  0
 62 65  1  0
 71 62  1  0
 65 63  1  0
 65 66  1  0
 65 70  1  6
 66 69  1  0
 67 68  1  0
 69 67  1  0
 68102  2  0
 72 71  1  0
 73 72  1  0
 72 75  1  6
 73 74  2  0
 80 73  1  0
 75 76  1  0
 76 77  1  0
 77 78  2  0
 77 79  1  0
 81 80  1  0
 82 81  1  0
 81 84  1  6
 82 83  2  0
 88 82  1  0
 84 85  1  0
 85 86  1  1
 85 87  1  0
 89 88  1  0
 90 89  1  0
 89 92  1  6
 90 91  2  0
 97 90  1  0
 92 93  1  0
 93 94  1  6
 93 95  1  0
 96 98  2  0
 99 96  1  0
 96105  1  0
 97 99  1  0
 99100  1  0
 99104  1  6
100103  1  0
102101  1  0
101103  1  0
105106  1  0
106107  1  0
106109  1  1
107108  2  0
107116  1  0
109110  1  0
110111  2  0
110112  1  0
111113  1  0
112114  2  0
113115  2  0
114115  1  0
116117  1  0
117118  1  0
117120  1  6
118119  2  0
118127  1  0
120121  1  0
121122  1  0
122123  1  0
123124  1  0
124125  1  0
124126  2  0
127128  1  0
128129  1  0
128131  1  1
129130  1  0
129132  2  0
 31133  1  0
 61134  1  0
126135  1  0
M  CHG  2  12   1  21   1
M  END
$$$$
