
     RDKit          3D

135137  0  0  0  0  0  0  0  0999 V2000
  -24.9471    1.9171   -1.8157 C   0  0  0  0  0  0  0  0  0  0  0  0
  -24.9989    2.0705   -3.0316 O   0  0  0  0  0  0  0  0  0  0  0  0
  -23.9741    0.9802   -1.1535 C   0  0  0  0  0  0  0  0  0  0  0  0
  -25.7763    2.5720   -0.9212 N   0  0  0  0  0  0  0  0  0  0  0  0
  -27.1598    2.1618   -0.7012 C   0  0  2  0  0  0  0  0  0  0  0  0
  -27.2458    0.6077   -0.6726 C   0  0  0  0  0  0  0  0  0  0  0  0
  -27.5508   -0.0276    0.3345 O   0  0  0  0  0  0  0  0  0  0  0  0
  -28.1360    2.8124   -1.7035 C   0  0  0  0  0  0  0  0  0  0  0  0
  -28.7271    4.1569   -1.2423 C   0  0  0  0  0  0  0  0  0  0  0  0
  -29.3247    4.0263    0.1662 C   0  0  0  0  0  0  0  0  0  0  0  0
  -30.8130    4.3546    0.2471 C   0  0  0  0  0  0  0  0  0  0  0  0
  -31.3374    4.0975    1.6091 N   0  0  0  0  0  4  0  0  0  0  0  0
  -26.9624   -0.0005   -1.8872 N   0  0  0  0  0  0  0  0  0  0  0  0
  -26.9422   -1.4685   -2.0362 C   0  0  2  0  0  0  0  0  0  0  0  0
  -26.5970   -2.0535   -0.6375 C   0  0  0  0  0  0  0  0  0  0  0  0
  -26.5356   -1.3114    0.3483 O   0  0  0  0  0  0  0  0  0  0  0  0
  -26.1322   -1.9821   -3.2360 C   0  0  0  0  0  0  0  0  0  0  0  0
  -26.4582   -3.4535   -3.5677 C   0  0  0  0  0  0  0  0  0  0  0  0
  -25.6380   -4.0426   -4.7225 C   0  0  0  0  0  0  0  0  0  0  0  0
  -25.3395   -5.5237   -4.5578 C   0  0  0  0  0  0  0  0  0  0  0  0
  -24.3403   -5.7161   -3.4925 N   0  0  0  0  0  4  0  0  0  0  0  0
  -26.5429   -3.4280   -0.5147 N   0  0  0  0  0  0  0  0  0  0  0  0
  -26.1385   -4.0184    0.7771 C   0  0  2  0  0  0  0  0  0  0  0  0
  -25.3089   -5.3196    0.6972 C   0  0  0  0  0  0  0  0  0  0  0  0
  -25.1272   -5.8989   -0.3735 O   0  0  0  0  0  0  0  0  0  0  0  0
  -27.3924   -4.3019    1.6404 C   0  0  0  0  0  0  0  0  0  0  0  0
  -28.4427   -5.1663    0.9355 C   0  0  0  0  0  0  0  0  0  0  0  0
  -27.8388   -6.4048    0.2745 C   0  0  0  0  0  0  0  0  0  0  0  0
  -28.6953   -7.5796    0.3637 N   0  0  0  0  0  0  0  0  0  0  0  0
  -28.5067   -8.7254   -0.3294 C   0  0  0  0  0  0  0  0  0  0  0  0
  -27.5476   -9.5674   -0.1797 N   0  0  0  0  0  0  0  0  0  0  0  0
  -29.5010   -8.9185   -1.2198 N   0  0  0  0  0  0  0  0  0  0  0  0
  -24.8350   -5.8431    1.8867 N   0  0  0  0  0  0  0  0  0  0  0  0
  -23.9700   -7.0499    1.8478 C   0  0  2  0  0  0  0  0  0  0  0  0
  -23.4943   -7.3634    3.2974 C   0  0  0  0  0  0  0  0  0  0  0  0
  -24.2068   -7.0847    4.2691 O   0  0  0  0  0  0  0  0  0  0  0  0
  -22.8315   -6.8901    0.8079 C   0  0  0  0  0  0  0  0  0  0  0  0
  -21.8680   -8.0582    0.6964 C   0  0  0  0  0  0  0  0  0  0  0  0
  -22.2508   -9.2062   -0.0200 C   0  0  0  0  0  0  0  0  0  0  0  0
  -20.5965   -8.0324    1.2876 C   0  0  0  0  0  0  0  0  0  0  0  0
  -21.3691  -10.2798   -0.1756 C   0  0  0  0  0  0  0  0  0  0  0  0
  -19.7127   -9.1010    1.1197 C   0  0  0  0  0  0  0  0  0  0  0  0
  -20.1024  -10.2145    0.3890 C   0  0  0  0  0  0  0  0  0  0  0  0
  -19.2031  -11.2267    0.2505 O   0  0  0  0  0  0  0  0  0  0  0  0
  -22.3317   -8.0710    3.4406 N   0  0  0  0  0  0  0  0  0  0  0  0
  -21.7814   -8.5334    4.7196 C   0  0  2  0  0  0  0  0  0  0  0  0
  -20.2378   -8.4731    4.6356 C   0  0  0  0  0  0  0  0  0  0  0  0
  -19.5213   -9.2110    5.3085 O   0  0  0  0  0  0  0  0  0  0  0  0
  -22.2297   -9.9733    4.9977 C   0  0  0  0  0  0  0  0  0  0  0  0
  -22.9935  -10.4562    3.8931 O   0  0  0  0  0  0  0  0  0  0  0  0
  -19.7405   -7.5282    3.7650 N   0  0  0  0  0  0  0  0  0  0  0  0
  -18.3160   -7.1439    3.7178 C   0  0  2  0  0  0  0  0  0  0  0  0
  -18.1673   -5.6234    4.0263 C   0  0  0  0  0  0  0  0  0  0  0  0
  -17.6487   -4.8267    3.2469 O   0  0  0  0  0  0  0  0  0  0  0  0
  -17.6716   -7.4008    2.3346 C   0  0  0  0  0  0  0  0  0  0  0  0
  -17.0749   -6.1882    1.5989 C   0  0  0  0  0  0  0  0  0  0  0  0
  -15.7638   -6.4317    0.8519 C   0  0  0  0  0  0  0  0  0  0  0  0
  -15.9184   -7.5346   -0.0748 N   0  0  0  0  0  0  0  0  0  0  0  0
  -15.9828   -7.3426   -1.4103 C   0  0  0  0  0  0  0  0  0  0  0  0
  -16.7500   -8.2869   -1.9937 N   0  0  0  0  0  0  0  0  0  0  0  0
  -15.4401   -6.3706   -2.0427 N   0  0  0  0  0  0  0  0  0  0  0  0
  -20.4029   -6.8582    5.9584 C   0  0  0  0  0  0  0  0  0  0  0  0
  -18.8083   -5.2251    5.1885 N   0  0  0  0  0  0  0  0  0  0  0  0
  -20.6258   -8.0317    6.2053 O   0  0  0  0  0  0  0  0  0  0  0  0
  -19.0824   -6.1304    6.3365 C   0  0  1  0  0  0  0  0  0  0  0  0
  -19.3552   -5.3878    7.6810 C   0  0  0  0  0  0  0  0  0  0  0  0
  -20.4463   -7.2030    9.2573 C   0  0  0  0  0  0  0  0  0  0  0  0
  -19.9697   -8.5494    9.7385 C   0  0  0  0  0  0  0  0  0  0  0  0
  -19.2735   -6.2403    8.9729 C   0  0  0  0  0  0  0  0  0  0  0  0
  -17.9296   -7.1367    6.4503 C   0  0  0  0  0  0  0  0  0  0  0  0
  -21.4120   -6.0584    5.4608 N   0  0  0  0  0  0  0  0  0  0  0  0
  -22.7836   -6.5614    5.3989 C   0  0  2  0  0  0  0  0  0  0  0  0
  -23.1338   -7.7158    4.4222 C   0  0  0  0  0  0  0  0  0  0  0  0
  -23.9783   -8.5582    4.7775 O   0  0  0  0  0  0  0  0  0  0  0  0
  -23.7693   -5.3773    5.2763 C   0  0  0  0  0  0  0  0  0  0  0  0
  -23.2600   -4.0746    5.8999 C   0  0  0  0  0  0  0  0  0  0  0  0
  -21.7934   -4.1538    6.2751 C   0  0  0  0  0  0  0  0  0  0  0  0
  -21.0566   -3.1663    6.3216 O   0  0  0  0  0  0  0  0  0  0  0  0
  -21.3210   -5.4011    6.5326 N   0  0  0  0  0  0  0  0  0  0  0  0
  -22.7582   -7.8265    3.1283 N   0  0  0  0  0  0  0  0  0  0  0  0
  -21.8398   -7.1133    2.2349 C   0  0  2  0  0  0  0  0  0  0  0  0
  -20.3867   -7.4960    2.5714 C   0  0  0  0  0  0  0  0  0  0  0  0
  -19.6299   -6.7342    3.1651 O   0  0  0  0  0  0  0  0  0  0  0  0
  -22.1327   -5.6044    2.1741 C   0  0  0  0  0  0  0  0  0  0  0  0
  -20.9245   -4.6573    2.2715 C   0  0  1  0  0  0  0  0  0  0  0  0
  -21.3385   -3.2425    2.6473 C   0  0  0  0  0  0  0  0  0  0  0  0
  -19.9516   -5.1895    3.3319 C   0  0  0  0  0  0  0  0  0  0  0  0
  -19.9939   -8.7722    2.2138 N   0  0  0  0  0  0  0  0  0  0  0  0
  -20.0182   -9.8576    3.2445 C   0  0  2  0  0  0  0  0  0  0  0  0
  -18.6499   -9.8115    3.9705 C   0  0  0  0  0  0  0  0  0  0  0  0
  -17.7320   -9.1370    3.4843 O   0  0  0  0  0  0  0  0  0  0  0  0
  -20.1535  -11.2131    2.5427 C   0  0  0  0  0  0  0  0  0  0  0  0
  -20.9752  -11.1805    1.2424 C   0  0  1  0  0  0  0  0  0  0  0  0
  -21.2185   -9.7302    0.8204 C   0  0  0  0  0  0  0  0  0  0  0  0
  -20.2647  -11.9289    0.1114 C   0  0  0  0  0  0  0  0  0  0  0  0
  -18.8170  -12.8905    5.7098 C   0  0  0  0  0  0  0  0  0  0  0  0
  -18.3325  -10.4788    5.1045 N   0  0  0  0  0  0  0  0  0  0  0  0
  -19.6764  -13.7306    5.9614 O   0  0  0  0  0  0  0  0  0  0  0  0
  -18.9995  -11.3928    6.0960 C   0  0  1  0  0  0  0  0  0  0  0  0
  -20.5194  -11.1374    6.2570 C   0  0  0  0  0  0  0  0  0  0  0  0
  -21.5115  -10.2088    8.4965 C   0  0  0  0  0  0  0  0  0  0  0  0
  -20.3988   -9.7876    9.4157 C   0  0  0  0  0  0  0  0  0  0  0  0
  -21.2023  -11.4377    7.6091 C   0  0  0  0  0  0  0  0  0  0  0  0
  -18.2057  -11.2241    7.4034 C   0  0  0  0  0  0  0  0  0  0  0  0
  -17.6649  -13.2191    5.0387 N   0  0  0  0  0  0  0  0  0  0  0  0
  -16.4073  -12.4541    5.1326 C   0  0  2  0  0  0  0  0  0  0  0  0
  -15.6939  -11.9140    3.8579 C   0  0  0  0  0  0  0  0  0  0  0  0
  -15.5584  -12.6063    2.8483 O   0  0  0  0  0  0  0  0  0  0  0  0
  -15.3978  -13.0406    6.1519 C   0  0  0  0  0  0  0  0  0  0  0  0
  -15.9286  -14.0509    7.1402 C   0  0  0  0  0  0  0  0  0  0  0  0
  -16.1767  -15.3787    6.7710 C   0  0  0  0  0  0  0  0  0  0  0  0
  -16.1271  -13.6799    8.4796 C   0  0  0  0  0  0  0  0  0  0  0  0
  -16.6625  -16.2981    7.7047 C   0  0  0  0  0  0  0  0  0  0  0  0
  -16.5952  -14.6057    9.4165 C   0  0  0  0  0  0  0  0  0  0  0  0
  -16.8736  -15.9125    9.0263 C   0  0  0  0  0  0  0  0  0  0  0  0
  -15.1312  -10.6493    3.9515 N   0  0  0  0  0  0  0  0  0  0  0  0
  -14.7356   -9.9673    2.7063 C   0  0  2  0  0  0  0  0  0  0  0  0
  -13.1931   -9.8559    2.6304 C   0  0  0  0  0  0  0  0  0  0  0  0
  -12.6108   -9.4001    1.6517 O   0  0  0  0  0  0  0  0  0  0  0  0
  -15.3268   -8.5495    2.6060 C   0  0  0  0  0  0  0  0  0  0  0  0
  -15.0096   -7.7890    1.3148 C   0  0  0  0  0  0  0  0  0  0  0  0
  -15.7754   -6.4753    1.1466 C   0  0  0  0  0  0  0  0  0  0  0  0
  -14.8583   -5.4302    0.6964 N   0  0  0  0  0  0  0  0  0  0  0  0
  -14.6953   -4.3132    1.4453 C   0  0  0  0  0  0  0  0  0  0  0  0
  -14.1282   -4.5954    2.6353 N   0  0  0  0  0  0  0  0  0  0  0  0
  -15.0152   -3.1292    1.0799 N   0  0  0  0  0  0  0  0  0  0  0  0
  -12.5483  -10.1509    3.8214 N   0  0  0  0  0  0  0  0  0  0  0  0
  -11.0891  -10.0843    3.8847 C   0  0  2  0  0  0  0  0  0  0  0  0
  -10.6515   -9.0505    2.8481 C   0  0  0  0  0  0  0  0  0  0  0  0
  -11.3779   -9.0928    1.7141 O   0  0  0  0  0  0  0  0  0  0  0  0
  -10.4741  -11.4296    3.5535 C   0  0  0  0  0  0  0  0  0  0  0  0
   -9.7653   -8.2194    3.0026 O   0  0  0  0  0  0  0  0  0  0  0  0
  -27.0373   -9.3020    0.6613 H   0  0  0  0  0  0  0  0  0  0  0  0
  -15.7443   -5.4847   -1.6364 H   0  0  0  0  0  0  0  0  0  0  0  0
  -15.1507   -3.0958    0.0691 H   0  0  0  0  0  0  0  0  0  0  0  0
  1  2  2  0
  1  3  1  0
  4  1  1  0
  5  4  1  0
  6  5  1  0
  5  8  1  6
  6  7  2  0
 13  6  1  0
  8  9  1  0
  9 10  1  0
 10 11  1  0
 11 12  1  0
 14 13  1  0
 15 14  1  0
 14 17  1  6
 15 16  2  0
 22 15  1  0
 17 18  1  0
 18 19  1  0
 19 20  1  0
 20 21  1  0
 23 22  1  0
 24 23  1  0
 23 26  1  1
 24 25  2  0
 33 24  1  0
 26 27  1  0
 27 28  1  0
 28 29  1  0
 29 30  1  0
 30 31  2  0
 30 32  1  0
 34 33  1  0
 35 34  1  0
 34 37  1  6
 35 36  2  0
 45 35  1  0
 37 38  1  0
 38 39  2  0
 38 40  1  0
 39 41  1  0
 40 42  2  0
 41 43  2  0
 42 43  1  0
 43 44  1  0
 46 45  1  0
 47 46  1  0
 46 49  1  6
 47 48  2  0
 51 47  1  0
 49 50  1  0
 52 51  1  0
 53 52  1  0
 52 55  1  6
 53 54  2  0
 63 53  1  0
 55 56  1  0
 56 57  1  0
 57 58  1  0
 58 59  1  0
 59 60  1  0
 59 61  2  0
 62 64  2  0
 62 65  1  0
 71 62  1  0
 65 63  1  0
 65 66  1  0
 65 70  1  1
 66 69  1  0
 67 68  1  0
 69 67  1  0
 68102  2  0
 72 71  1  0
 73 72  1  0
 72 75  1  6
 73 74  2  0
 80 73  1  0
 75 76  1  0
 76 77  1  0
 77 78  2  0
 77 79  1  0
 81 80  1  0
 82 81  1  0
 81 84  1  1
 82 83  2  0
 88 82  1  0
 84 85  1  0
 85 86  1  1
 85 87  1  0
 89 88  1  0
 90 89  1  0
 89 92  1  6
 90 91  2  0
 97 90  1  0
 92 93  1  0
 93 94  1  6
 93 95  1  0
 96 98  2  0
 99 96  1  0
 96105  1  0
 97 99  1  0
 99100  1  0
 99104  1  1
100103  1  0
102101  1  0
101103  1  0
105106  1  0
106107  1  0
106109  1  6
107108  2  0
107116  1  0
109110  1  0
110111  2  0
110112  1  0
111113  1  0
112114  2  0
113115  2  0
114115  1  0
116117  1  0
117118  1  0
117120  1  1
118119  2  0
118127  1  0
120121  1  0
121122  1  0
122123  1  0
123124  1  0
124125  1  0
124126  2  0
127128  1  0
128129  1  0
128131  1  6
129130  1  0
129132  2  0
 31133  1  0
 61134  1  0
126135  1  0
M  CHG  2  12   1  21   1
M  END
$$$$
