
     RDKit          3D

135137  0  0  0  0  0  0  0  0999 V2000
  -20.1903   -1.1395   -6.9555 C   0  0  0  0  0  0  0  0  0  0  0  0
  -19.0314   -0.8082   -6.7273 O   0  0  0  0  0  0  0  0  0  0  0  0
  -20.5563   -2.4826   -7.5256 C   0  0  0  0  0  0  0  0  0  0  0  0
  -21.2836   -0.3213   -6.7286 N   0  0  0  0  0  0  0  0  0  0  0  0
  -21.8031   -0.0732   -5.3872 C   0  0  2  0  0  0  0  0  0  0  0  0
  -21.8949   -1.4164   -4.6057 C   0  0  0  0  0  0  0  0  0  0  0  0
  -22.8412   -2.1930   -4.7179 O   0  0  0  0  0  0  0  0  0  0  0  0
  -23.1266    0.7197   -5.4030 C   0  0  0  0  0  0  0  0  0  0  0  0
  -23.1726    1.8707   -6.4241 C   0  0  0  0  0  0  0  0  0  0  0  0
  -24.5772    2.4893   -6.4738 C   0  0  0  0  0  0  0  0  0  0  0  0
  -24.6165    3.9792   -6.1452 C   0  0  0  0  0  0  0  0  0  0  0  0
  -26.0047    4.4954   -6.1983 N   0  0  0  0  0  4  0  0  0  0  0  0
  -20.8087   -1.6702   -3.7805 N   0  0  0  0  0  0  0  0  0  0  0  0
  -20.7467   -2.8694   -2.9227 C   0  0  2  0  0  0  0  0  0  0  0  0
  -19.3736   -2.8255   -2.1943 C   0  0  0  0  0  0  0  0  0  0  0  0
  -19.0242   -3.7635   -1.4704 O   0  0  0  0  0  0  0  0  0  0  0  0
  -21.1334   -4.1812   -3.6221 C   0  0  0  0  0  0  0  0  0  0  0  0
  -21.0241   -5.3958   -2.6765 C   0  0  0  0  0  0  0  0  0  0  0  0
  -21.3656   -6.7422   -3.3275 C   0  0  0  0  0  0  0  0  0  0  0  0
  -22.5094   -6.6585   -4.3247 C   0  0  0  0  0  0  0  0  0  0  0  0
  -22.7344   -7.9787   -4.9384 N   0  0  0  0  0  4  0  0  0  0  0  0
  -18.5057   -1.8039   -2.5267 N   0  0  0  0  0  0  0  0  0  0  0  0
  -17.6576   -1.2108   -1.4733 C   0  0  2  0  0  0  0  0  0  0  0  0
  -18.4050   -0.5800   -0.2770 C   0  0  0  0  0  0  0  0  0  0  0  0
  -18.0786    0.5168    0.1763 O   0  0  0  0  0  0  0  0  0  0  0  0
  -16.7370   -0.1278   -2.0880 C   0  0  0  0  0  0  0  0  0  0  0  0
  -16.3428   -0.4076   -3.5417 C   0  0  0  0  0  0  0  0  0  0  0  0
  -15.0298    0.2678   -3.9363 C   0  0  0  0  0  0  0  0  0  0  0  0
  -13.8833   -0.6289   -3.8831 N   0  0  0  0  0  0  0  0  0  0  0  0
  -13.4346   -1.3687   -4.9225 C   0  0  0  0  0  0  0  0  0  0  0  0
  -12.8791   -2.5258   -4.8615 N   0  0  0  0  0  0  0  0  0  0  0  0
  -13.6728   -0.7460   -6.0947 N   0  0  0  0  0  0  0  0  0  0  0  0
  -19.4123   -1.3274    0.3064 N   0  0  0  0  0  0  0  0  0  0  0  0
  -20.1898   -0.7376    1.4261 C   0  0  2  0  0  0  0  0  0  0  0  0
  -21.2022   -1.8039    1.9399 C   0  0  0  0  0  0  0  0  0  0  0  0
  -21.7831   -1.6525    3.0212 O   0  0  0  0  0  0  0  0  0  0  0  0
  -20.8215    0.6176    1.0169 C   0  0  0  0  0  0  0  0  0  0  0  0
  -19.8598    1.7861    0.8943 C   0  0  0  0  0  0  0  0  0  0  0  0
  -19.6613    2.3917   -0.3593 C   0  0  0  0  0  0  0  0  0  0  0  0
  -19.1558    2.2887    1.9983 C   0  0  0  0  0  0  0  0  0  0  0  0
  -18.8149    3.4959   -0.4948 C   0  0  0  0  0  0  0  0  0  0  0  0
  -18.3207    3.4002    1.8626 C   0  0  0  0  0  0  0  0  0  0  0  0
  -18.1574    3.9971    0.6206 C   0  0  0  0  0  0  0  0  0  0  0  0
  -17.3367    5.0801    0.5422 O   0  0  0  0  0  0  0  0  0  0  0  0
  -21.5173   -2.8332    1.0950 N   0  0  0  0  0  0  0  0  0  0  0  0
  -22.3818   -3.9678    1.4382 C   0  0  2  0  0  0  0  0  0  0  0  0
  -21.4848   -5.1984    1.7107 C   0  0  0  0  0  0  0  0  0  0  0  0
  -20.7710   -5.6880    0.8381 O   0  0  0  0  0  0  0  0  0  0  0  0
  -23.3401   -4.2709    0.2800 C   0  0  0  0  0  0  0  0  0  0  0  0
  -24.5669   -4.7837    0.7986 O   0  0  0  0  0  0  0  0  0  0  0  0
  -21.5614   -5.6999    2.9916 N   0  0  0  0  0  0  0  0  0  0  0  0
  -20.8568   -6.9233    3.4233 C   0  0  2  0  0  0  0  0  0  0  0  0
  -21.6820   -8.1812    3.0160 C   0  0  0  0  0  0  0  0  0  0  0  0
  -22.8663   -8.1318    2.6903 O   0  0  0  0  0  0  0  0  0  0  0  0
  -20.6457   -6.9841    4.9551 C   0  0  0  0  0  0  0  0  0  0  0  0
  -19.2682   -7.4494    5.4587 C   0  0  0  0  0  0  0  0  0  0  0  0
  -19.1610   -8.9187    5.8662 C   0  0  0  0  0  0  0  0  0  0  0  0
  -18.0966   -9.0884    6.8345 N   0  0  0  0  0  0  0  0  0  0  0  0
  -17.6832  -10.3101    7.2358 C   0  0  0  0  0  0  0  0  0  0  0  0
  -16.6395  -10.7312    6.4916 N   0  0  0  0  0  0  0  0  0  0  0  0
  -18.1703  -10.9666    8.2212 N   0  0  0  0  0  0  0  0  0  0  0  0
  -19.2015   -8.6448    4.4440 C   0  0  0  0  0  0  0  0  0  0  0  0
  -20.9221   -9.3348    2.9060 N   0  0  0  0  0  0  0  0  0  0  0  0
  -18.3621   -8.9881    5.2598 O   0  0  0  0  0  0  0  0  0  0  0  0
  -19.4474   -9.3777    3.0953 C   0  0  1  0  0  0  0  0  0  0  0  0
  -18.6441   -8.5934    2.0122 C   0  0  0  0  0  0  0  0  0  0  0  0
  -16.2218   -8.3134    3.0242 C   0  0  0  0  0  0  0  0  0  0  0  0
  -15.2000   -9.3114    3.5052 C   0  0  0  0  0  0  0  0  0  0  0  0
  -17.1271   -8.8974    1.9185 C   0  0  0  0  0  0  0  0  0  0  0  0
  -19.0107  -10.8452    3.1956 C   0  0  0  0  0  0  0  0  0  0  0  0
  -19.8799   -7.4552    4.6172 N   0  0  0  0  0  0  0  0  0  0  0  0
  -19.4725   -6.5248    5.6693 C   0  0  2  0  0  0  0  0  0  0  0  0
  -19.6618   -6.9202    7.1582 C   0  0  0  0  0  0  0  0  0  0  0  0
  -18.8064   -6.5511    7.9836 O   0  0  0  0  0  0  0  0  0  0  0  0
  -20.0320   -5.1162    5.3663 C   0  0  0  0  0  0  0  0  0  0  0  0
  -21.5412   -5.0866    5.1081 C   0  0  0  0  0  0  0  0  0  0  0  0
  -22.3173   -5.8581    6.1572 C   0  0  0  0  0  0  0  0  0  0  0  0
  -23.0960   -5.3211    6.9480 O   0  0  0  0  0  0  0  0  0  0  0  0
  -22.0792   -7.1949    6.1971 N   0  0  0  0  0  0  0  0  0  0  0  0
  -20.7588   -7.4790    7.7167 N   0  0  0  0  0  0  0  0  0  0  0  0
  -22.0158   -8.0499    7.2224 C   0  0  2  0  0  0  0  0  0  0  0  0
  -21.7520   -9.4424    6.6205 C   0  0  0  0  0  0  0  0  0  0  0  0
  -21.7486   -9.6422    5.4098 O   0  0  0  0  0  0  0  0  0  0  0  0
  -22.7910   -7.0726    6.3224 C   0  0  0  0  0  0  0  0  0  0  0  0
  -23.6311   -7.6878    5.1901 C   0  0  1  0  0  0  0  0  0  0  0  0
  -23.0506   -9.0066    4.7020 C   0  0  0  0  0  0  0  0  0  0  0  0
  -25.0591   -7.9295    5.6966 C   0  0  0  0  0  0  0  0  0  0  0  0
  -21.4649  -10.4513    7.5207 N   0  0  0  0  0  0  0  0  0  0  0  0
  -20.0352  -10.8136    7.7772 C   0  0  2  0  0  0  0  0  0  0  0  0
  -19.6465  -11.8702    6.7124 C   0  0  0  0  0  0  0  0  0  0  0  0
  -20.5385  -12.4024    6.0378 O   0  0  0  0  0  0  0  0  0  0  0  0
  -19.9210  -11.4536    9.1649 C   0  0  0  0  0  0  0  0  0  0  0  0
  -20.9907  -12.5169    9.4685 C   0  0  1  0  0  0  0  0  0  0  0  0
  -20.6913  -13.1828   10.8129 C   0  0  0  0  0  0  0  0  0  0  0  0
  -22.3942  -11.9063    9.5025 C   0  0  0  0  0  0  0  0  0  0  0  0
  -16.5809  -12.9786    8.0931 C   0  0  0  0  0  0  0  0  0  0  0  0
  -18.3927  -12.3096    6.4539 N   0  0  0  0  0  0  0  0  0  0  0  0
  -15.4042  -13.2217    8.3463 O   0  0  0  0  0  0  0  0  0  0  0  0
  -16.9878  -12.0395    6.9192 C   0  0  1  0  0  0  0  0  0  0  0  0
  -16.7549  -10.5815    7.3898 C   0  0  0  0  0  0  0  0  0  0  0  0
  -15.1801   -8.9611    6.0646 C   0  0  0  0  0  0  0  0  0  0  0  0
  -14.7803   -9.5879    4.7578 C   0  0  0  0  0  0  0  0  0  0  0  0
  -15.3538   -9.9491    7.2423 C   0  0  0  0  0  0  0  0  0  0  0  0
  -16.0829  -12.4595    5.7477 C   0  0  0  0  0  0  0  0  0  0  0  0
  -17.6012  -13.4904    8.8565 N   0  0  0  0  0  0  0  0  0  0  0  0
  -18.9574  -12.9137    8.9167 C   0  0  2  0  0  0  0  0  0  0  0  0
  -20.0193  -13.4509    9.9213 C   0  0  0  0  0  0  0  0  0  0  0  0
  -21.2255  -13.4022    9.6773 O   0  0  0  0  0  0  0  0  0  0  0  0
  -19.5749  -12.6309    7.5235 C   0  0  0  0  0  0  0  0  0  0  0  0
  -19.7711  -13.8141    6.6066 C   0  0  0  0  0  0  0  0  0  0  0  0
  -20.3421  -15.0088    7.0618 C   0  0  0  0  0  0  0  0  0  0  0  0
  -19.4322  -13.7087    5.2482 C   0  0  0  0  0  0  0  0  0  0  0  0
  -20.5195  -16.0892    6.1932 C   0  0  0  0  0  0  0  0  0  0  0  0
  -19.6278  -14.7839    4.3767 C   0  0  0  0  0  0  0  0  0  0  0  0
  -20.1613  -15.9784    4.8518 C   0  0  0  0  0  0  0  0  0  0  0  0
  -19.5440  -13.8959   11.1465 N   0  0  0  0  0  0  0  0  0  0  0  0
  -19.7582  -15.3087   11.5070 C   0  0  2  0  0  0  0  0  0  0  0  0
  -18.9360  -15.6636   12.7701 C   0  0  0  0  0  0  0  0  0  0  0  0
  -18.3001  -16.7076   12.8730 O   0  0  0  0  0  0  0  0  0  0  0  0
  -19.3430  -16.2674   10.3764 C   0  0  0  0  0  0  0  0  0  0  0  0
  -20.3622  -16.4401    9.2461 C   0  0  0  0  0  0  0  0  0  0  0  0
  -21.7207  -16.9833    9.6931 C   0  0  0  0  0  0  0  0  0  0  0  0
  -22.6551  -15.8738    9.8714 N   0  0  0  0  0  0  0  0  0  0  0  0
  -23.9251  -15.9868    9.4139 C   0  0  0  0  0  0  0  0  0  0  0  0
  -24.1584  -17.2125    8.9032 N   0  0  0  0  0  0  0  0  0  0  0  0
  -24.8113  -15.0651    9.4676 N   0  0  0  0  0  0  0  0  0  0  0  0
  -18.8428  -14.6306   13.6896 N   0  0  0  0  0  0  0  0  0  0  0  0
  -18.1779  -14.8659   14.9703 C   0  0  2  0  0  0  0  0  0  0  0  0
  -16.8543  -15.5617   14.6565 C   0  0  0  0  0  0  0  0  0  0  0  0
  -15.9229  -15.3921   15.6152 O   0  0  0  0  0  0  0  0  0  0  0  0
  -19.0229  -15.7560   15.8600 C   0  0  0  0  0  0  0  0  0  0  0  0
  -16.6290  -16.2497   13.6686 O   0  0  0  0  0  0  0  0  0  0  0  0
  -12.1823   -2.4908   -4.1189 H   0  0  0  0  0  0  0  0  0  0  0  0
  -18.3557  -10.3312    8.9986 H   0  0  0  0  0  0  0  0  0  0  0  0
  -24.4746  -14.2835   10.0305 H   0  0  0  0  0  0  0  0  0  0  0  0
  1  2  2  0
  1  3  1  0
  4  1  1  0
  5  4  1  0
  6  5  1  0
  5  8  1  6
  6  7  2  0
 13  6  1  0
  8  9  1  0
  9 10  1  0
 10 11  1  0
 11 12  1  0
 14 13  1  0
 15 14  1  0
 14 17  1  6
 15 16  2  0
 22 15  1  0
 17 18  1  0
 18 19  1  0
 19 20  1  0
 20 21  1  0
 23 22  1  0
 24 23  1  0
 23 26  1  6
 24 25  2  0
 33 24  1  0
 26 27  1  0
 27 28  1  0
 28 29  1  0
 29 30  1  0
 30 31  2  0
 30 32  1  0
 34 33  1  0
 35 34  1  0
 34 37  1  6
 35 36  2  0
 45 35  1  0
 37 38  1  0
 38 39  2  0
 38 40  1  0
 39 41  1  0
 40 42  2  0
 41 43  2  0
 42 43  1  0
 43 44  1  0
 46 45  1  0
 47 46  1  0
 46 49  1  6
 47 48  2  0
 51 47  1  0
 49 50  1  0
 52 51  1  0
 53 52  1  0
 52 55  1  1
 53 54  2  0
 63 53  1  0
 55 56  1  0
 56 57  1  0
 57 58  1  0
 58 59  1  0
 59 60  1  0
 59 61  2  0
 62 64  2  0
 62 65  1  0
 71 62  1  0
 65 63  1  0
 65 66  1  0
 65 70  1  1
 66 69  1  0
 67 68  1  0
 69 67  1  0
 68102  2  0
 72 71  1  0
 73 72  1  0
 72 75  1  6
 73 74  2  0
 80 73  1  0
 75 76  1  0
 76 77  1  0
 77 78  2  0
 77 79  1  0
 81 80  1  0
 82 81  1  0
 81 84  1  6
 82 83  2  0
 88 82  1  0
 84 85  1  0
 85 86  1  1
 85 87  1  0
 89 88  1  0
 90 89  1  0
 89 92  1  1
 90 91  2  0
 97 90  1  0
 92 93  1  0
 93 94  1  1
 93 95  1  0
 96 98  2  0
 99 96  1  0
 96105  1  0
 97 99  1  0
 99100  1  0
 99104  1  6
100103  1  0
102101  1  0
101103  1  0
105106  1  0
106107  1  0
106109  1  6
107108  2  0
107116  1  0
109110  1  0
110111  2  0
110112  1  0
111113  1  0
112114  2  0
113115  2  0
114115  1  0
116117  1  0
117118  1  0
117120  1  6
118119  2  0
118127  1  0
120121  1  0
121122  1  0
122123  1  0
123124  1  0
124125  1  0
124126  2  0
127128  1  0
128129  1  0
128131  1  1
129130  1  0
129132  2  0
 31133  1  0
 61134  1  0
126135  1  0
M  CHG  2  12   1  21   1
M  END
$$$$
