
     RDKit          3D

135137  0  0  0  0  0  0  0  0999 V2000
  -26.0956   -1.3427   -7.6815 C   0  0  0  0  0  0  0  0  0  0  0  0
  -24.9548   -0.8982   -7.7574 O   0  0  0  0  0  0  0  0  0  0  0  0
  -26.5724   -2.5078   -8.5049 C   0  0  0  0  0  0  0  0  0  0  0  0
  -27.0702   -0.8228   -6.8469 N   0  0  0  0  0  0  0  0  0  0  0  0
  -26.7621   -0.3209   -5.5114 C   0  0  2  0  0  0  0  0  0  0  0  0
  -25.5033   -1.0495   -4.9566 C   0  0  0  0  0  0  0  0  0  0  0  0
  -24.9259   -1.9469   -5.5668 O   0  0  0  0  0  0  0  0  0  0  0  0
  -27.9764   -0.3838   -4.5614 C   0  0  0  0  0  0  0  0  0  0  0  0
  -29.2912    0.1414   -5.1656 C   0  0  0  0  0  0  0  0  0  0  0  0
  -30.4015    0.1575   -4.1048 C   0  0  0  0  0  0  0  0  0  0  0  0
  -31.3939    1.3071   -4.2555 C   0  0  0  0  0  0  0  0  0  0  0  0
  -32.4655    1.2170   -3.2356 N   0  0  0  0  0  4  0  0  0  0  0  0
  -25.0787   -0.5892   -3.7185 N   0  0  0  0  0  0  0  0  0  0  0  0
  -24.0336   -1.2877   -2.9453 C   0  0  2  0  0  0  0  0  0  0  0  0
  -24.6218   -1.5400   -1.5282 C   0  0  0  0  0  0  0  0  0  0  0  0
  -25.0313   -0.5936   -0.8480 O   0  0  0  0  0  0  0  0  0  0  0  0
  -22.6385   -0.6503   -3.0276 C   0  0  0  0  0  0  0  0  0  0  0  0
  -22.2898    0.1467   -1.7530 C   0  0  0  0  0  0  0  0  0  0  0  0
  -21.2012    1.2103   -1.9452 C   0  0  0  0  0  0  0  0  0  0  0  0
  -19.8046    0.7132   -1.6099 C   0  0  0  0  0  0  0  0  0  0  0  0
  -19.7469    0.3021   -0.1965 N   0  0  0  0  0  4  0  0  0  0  0  0
  -24.8294   -2.8509   -1.1460 N   0  0  0  0  0  0  0  0  0  0  0  0
  -25.2784   -3.1347    0.2318 C   0  0  2  0  0  0  0  0  0  0  0  0
  -24.1631   -3.4195    1.2628 C   0  0  0  0  0  0  0  0  0  0  0  0
  -23.0733   -2.8507    1.2012 O   0  0  0  0  0  0  0  0  0  0  0  0
  -26.2486   -4.3417    0.2300 C   0  0  0  0  0  0  0  0  0  0  0  0
  -25.6319   -5.6265   -0.3325 C   0  0  0  0  0  0  0  0  0  0  0  0
  -26.5766   -6.8240   -0.2369 C   0  0  0  0  0  0  0  0  0  0  0  0
  -26.7796   -7.4994   -1.5113 N   0  0  0  0  0  0  0  0  0  0  0  0
  -27.8913   -8.1919   -1.8481 C   0  0  0  0  0  0  0  0  0  0  0  0
  -29.1046   -7.8957   -1.5460 N   0  0  0  0  0  0  0  0  0  0  0  0
  -27.5793   -9.2659   -2.6018 N   0  0  0  0  0  0  0  0  0  0  0  0
  -24.4149   -4.3883    2.2175 N   0  0  0  0  0  0  0  0  0  0  0  0
  -24.0679   -4.1096    3.6346 C   0  0  2  0  0  0  0  0  0  0  0  0
  -24.4452   -5.3555    4.4897 C   0  0  0  0  0  0  0  0  0  0  0  0
  -24.8935   -5.2223    5.6346 O   0  0  0  0  0  0  0  0  0  0  0  0
  -24.6958   -2.7755    4.1133 C   0  0  0  0  0  0  0  0  0  0  0  0
  -24.8587   -2.6218    5.6149 C   0  0  0  0  0  0  0  0  0  0  0  0
  -26.0011   -3.1463    6.2453 C   0  0  0  0  0  0  0  0  0  0  0  0
  -23.9000   -1.9695    6.4040 C   0  0  0  0  0  0  0  0  0  0  0  0
  -26.1579   -3.0575    7.6316 C   0  0  0  0  0  0  0  0  0  0  0  0
  -24.0530   -1.8936    7.7903 C   0  0  0  0  0  0  0  0  0  0  0  0
  -25.1770   -2.4386    8.3947 C   0  0  0  0  0  0  0  0  0  0  0  0
  -25.2765   -2.3427    9.7487 O   0  0  0  0  0  0  0  0  0  0  0  0
  -24.3869   -6.5796    3.8807 N   0  0  0  0  0  0  0  0  0  0  0  0
  -24.7778   -7.8484    4.5050 C   0  0  2  0  0  0  0  0  0  0  0  0
  -23.5927   -8.3555    5.3606 C   0  0  0  0  0  0  0  0  0  0  0  0
  -23.3407   -7.8824    6.4666 O   0  0  0  0  0  0  0  0  0  0  0  0
  -25.1195   -8.8842    3.4271 C   0  0  0  0  0  0  0  0  0  0  0  0
  -25.7852   -8.2400    2.3414 O   0  0  0  0  0  0  0  0  0  0  0  0
  -22.8469   -9.3589    4.7819 N   0  0  0  0  0  0  0  0  0  0  0  0
  -21.6675   -9.9652    5.4306 C   0  0  2  0  0  0  0  0  0  0  0  0
  -21.3183  -11.3167    4.7373 C   0  0  0  0  0  0  0  0  0  0  0  0
  -21.9321  -12.3602    4.9506 O   0  0  0  0  0  0  0  0  0  0  0  0
  -21.8955  -10.2606    6.9324 C   0  0  0  0  0  0  0  0  0  0  0  0
  -20.7255  -10.8835    7.7136 C   0  0  0  0  0  0  0  0  0  0  0  0
  -20.8936  -10.9604    9.2310 C   0  0  0  0  0  0  0  0  0  0  0  0
  -19.9776  -10.0435    9.8786 N   0  0  0  0  0  0  0  0  0  0  0  0
  -19.8751   -9.9658   11.2231 C   0  0  0  0  0  0  0  0  0  0  0  0
  -19.3275  -11.0910   11.7278 N   0  0  0  0  0  0  0  0  0  0  0  0
  -20.1987   -8.9484   11.9299 N   0  0  0  0  0  0  0  0  0  0  0  0
  -19.4776   -8.9664    3.9187 C   0  0  0  0  0  0  0  0  0  0  0  0
  -20.3556  -11.2029    3.7470 N   0  0  0  0  0  0  0  0  0  0  0  0
  -18.5953   -8.1872    3.5987 O   0  0  0  0  0  0  0  0  0  0  0  0
  -20.1399   -9.9738    2.9375 C   0  0  1  0  0  0  0  0  0  0  0  0
  -21.4563   -9.3034    2.4361 C   0  0  0  0  0  0  0  0  0  0  0  0
  -20.7430   -6.8788    1.6728 C   0  0  0  0  0  0  0  0  0  0  0  0
  -19.7401   -6.3859    0.6615 C   0  0  0  0  0  0  0  0  0  0  0  0
  -21.3139   -8.2628    1.2963 C   0  0  0  0  0  0  0  0  0  0  0  0
  -19.1821  -10.3092    1.7866 C   0  0  0  0  0  0  0  0  0  0  0  0
  -20.0568   -8.8707    5.1681 N   0  0  0  0  0  0  0  0  0  0  0  0
  -19.7463   -7.7354    6.0357 C   0  0  2  0  0  0  0  0  0  0  0  0
  -18.3162   -7.5853    6.6201 C   0  0  0  0  0  0  0  0  0  0  0  0
  -17.8460   -6.4404    6.7518 O   0  0  0  0  0  0  0  0  0  0  0  0
  -20.8360   -7.5952    7.1228 C   0  0  0  0  0  0  0  0  0  0  0  0
  -20.9924   -6.1733    7.6696 C   0  0  0  0  0  0  0  0  0  0  0  0
  -20.6403   -5.1204    6.6375 C   0  0  0  0  0  0  0  0  0  0  0  0
  -20.6851   -3.9101    6.8688 O   0  0  0  0  0  0  0  0  0  0  0  0
  -20.2954   -5.5936    5.4117 N   0  0  0  0  0  0  0  0  0  0  0  0
  -17.5638   -8.5564    7.1843 N   0  0  0  0  0  0  0  0  0  0  0  0
  -17.6579  -10.0131    7.3228 C   0  0  2  0  0  0  0  0  0  0  0  0
  -17.3155  -10.6851    5.9802 C   0  0  0  0  0  0  0  0  0  0  0  0
  -18.1745  -11.1841    5.2602 O   0  0  0  0  0  0  0  0  0  0  0  0
  -18.9805  -10.4575    7.9703 C   0  0  0  0  0  0  0  0  0  0  0  0
  -18.8806  -11.4286    9.1592 C   0  0  1  0  0  0  0  0  0  0  0  0
  -19.7422  -12.6662    8.9577 C   0  0  0  0  0  0  0  0  0  0  0  0
  -17.4193  -11.8624    9.3337 C   0  0  0  0  0  0  0  0  0  0  0  0
  -15.9864  -10.6491    5.6019 N   0  0  0  0  0  0  0  0  0  0  0  0
  -15.5293   -9.5906    4.6471 C   0  0  2  0  0  0  0  0  0  0  0  0
  -15.7554  -10.1515    3.2203 C   0  0  0  0  0  0  0  0  0  0  0  0
  -16.0085  -11.3557    3.0792 O   0  0  0  0  0  0  0  0  0  0  0  0
  -14.0289   -9.3502    4.8454 C   0  0  0  0  0  0  0  0  0  0  0  0
  -13.1623  -10.6190    4.7666 C   0  0  1  0  0  0  0  0  0  0  0  0
  -13.9445  -11.8145    5.3139 C   0  0  0  0  0  0  0  0  0  0  0  0
  -12.7243  -10.9104    3.3288 C   0  0  0  0  0  0  0  0  0  0  0  0
  -13.9091   -7.7677    1.3651 C   0  0  0  0  0  0  0  0  0  0  0  0
  -15.6729   -9.4442    2.0693 N   0  0  0  0  0  0  0  0  0  0  0  0
  -13.4918   -6.6586    1.0438 O   0  0  0  0  0  0  0  0  0  0  0  0
  -15.4209   -8.0257    1.6363 C   0  0  1  0  0  0  0  0  0  0  0  0
  -15.8953   -6.9656    2.6623 C   0  0  0  0  0  0  0  0  0  0  0  0
  -17.8806   -5.3445    2.1216 C   0  0  0  0  0  0  0  0  0  0  0  0
  -18.5554   -5.7662    0.8459 C   0  0  0  0  0  0  0  0  0  0  0  0
  -16.3518   -5.5766    2.1652 C   0  0  0  0  0  0  0  0  0  0  0  0
  -16.0956   -7.8941    0.2596 C   0  0  0  0  0  0  0  0  0  0  0  0
  -13.0598   -8.8323    1.5414 N   0  0  0  0  0  0  0  0  0  0  0  0
  -13.5088  -10.2223    1.7457 C   0  0  2  0  0  0  0  0  0  0  0  0
  -12.6207  -11.2548    2.5013 C   0  0  0  0  0  0  0  0  0  0  0  0
  -11.4013  -11.1120    2.5993 O   0  0  0  0  0  0  0  0  0  0  0  0
  -14.1825  -10.8475    0.4976 C   0  0  0  0  0  0  0  0  0  0  0  0
  -13.4875  -10.6518   -0.8282 C   0  0  0  0  0  0  0  0  0  0  0  0
  -13.5408   -9.4309   -1.5118 C   0  0  0  0  0  0  0  0  0  0  0  0
  -12.7164  -11.6911   -1.3726 C   0  0  0  0  0  0  0  0  0  0  0  0
  -12.8845   -9.2710   -2.7352 C   0  0  0  0  0  0  0  0  0  0  0  0
  -12.0452  -11.5232   -2.5872 C   0  0  0  0  0  0  0  0  0  0  0  0
  -12.1384  -10.3163   -3.2743 C   0  0  0  0  0  0  0  0  0  0  0  0
  -13.2584  -12.3933    2.9724 N   0  0  0  0  0  0  0  0  0  0  0  0
  -13.5007  -12.5086    4.4215 C   0  0  2  0  0  0  0  0  0  0  0  0
  -14.6115  -13.5530    4.6914 C   0  0  0  0  0  0  0  0  0  0  0  0
  -14.9162  -13.9165    5.8227 O   0  0  0  0  0  0  0  0  0  0  0  0
  -13.9347  -11.1708    5.0475 C   0  0  0  0  0  0  0  0  0  0  0  0
  -14.1339  -11.1834    6.5661 C   0  0  0  0  0  0  0  0  0  0  0  0
  -14.4654   -9.8195    7.1747 C   0  0  0  0  0  0  0  0  0  0  0  0
  -15.8501   -9.4701    6.8642 N   0  0  0  0  0  0  0  0  0  0  0  0
  -16.8407   -9.8389    7.7114 C   0  0  0  0  0  0  0  0  0  0  0  0
  -16.7559  -11.1459    8.0305 N   0  0  0  0  0  0  0  0  0  0  0  0
  -17.7407   -9.0567    8.1759 N   0  0  0  0  0  0  0  0  0  0  0  0
  -15.3394  -13.9042    3.5653 N   0  0  0  0  0  0  0  0  0  0  0  0
  -16.4552  -14.8402    3.6934 C   0  0  2  0  0  0  0  0  0  0  0  0
  -15.9860  -15.9580    4.6235 C   0  0  0  0  0  0  0  0  0  0  0  0
  -15.0567  -15.5562    5.5125 O   0  0  0  0  0  0  0  0  0  0  0  0
  -16.8269  -15.4226    2.3442 C   0  0  0  0  0  0  0  0  0  0  0  0
  -16.4123  -17.1061    4.6273 O   0  0  0  0  0  0  0  0  0  0  0  0
  -29.2233   -8.0751   -0.5500 H   0  0  0  0  0  0  0  0  0  0  0  0
  -19.3723   -8.3743   12.1033 H   0  0  0  0  0  0  0  0  0  0  0  0
  -18.0559   -8.4109    7.4516 H   0  0  0  0  0  0  0  0  0  0  0  0
  1  2  2  0
  1  3  1  0
  4  1  1  0
  5  4  1  0
  6  5  1  0
  5  8  1  1
  6  7  2  0
 13  6  1  0
  8  9  1  0
  9 10  1  0
 10 11  1  0
 11 12  1  0
 14 13  1  0
 15 14  1  0
 14 17  1  1
 15 16  2  0
 22 15  1  0
 17 18  1  0
 18 19  1  0
 19 20  1  0
 20 21  1  0
 23 22  1  0
 24 23  1  0
 23 26  1  6
 24 25  2  0
 33 24  1  0
 26 27  1  0
 27 28  1  0
 28 29  1  0
 29 30  1  0
 30 31  2  0
 30 32  1  0
 34 33  1  0
 35 34  1  0
 34 37  1  1
 35 36  2  0
 45 35  1  0
 37 38  1  0
 38 39  2  0
 38 40  1  0
 39 41  1  0
 40 42  2  0
 41 43  2  0
 42 43  1  0
 43 44  1  0
 46 45  1  0
 47 46  1  0
 46 49  1  6
 47 48  2  0
 51 47  1  0
 49 50  1  0
 52 51  1  0
 53 52  1  0
 52 55  1  1
 53 54  2  0
 63 53  1  0
 55 56  1  0
 56 57  1  0
 57 58  1  0
 58 59  1  0
 59 60  1  0
 59 61  2  0
 62 64  2  0
 62 65  1  0
 71 62  1  0
 65 63  1  0
 65 66  1  0
 65 70  1  6
 66 69  1  0
 67 68  1  0
 69 67  1  0
 68102  2  0
 72 71  1  0
 73 72  1  0
 72 75  1  1
 73 74  2  0
 80 73  1  0
 75 76  1  0
 76 77  1  0
 77 78  2  0
 77 79  1  0
 81 80  1  0
 82 81  1  0
 81 84  1  6
 82 83  2  0
 88 82  1  0
 84 85  1  0
 85 86  1  6
 85 87  1  0
 89 88  1  0
 90 89  1  0
 89 92  1  1
 90 91  2  0
 97 90  1  0
 92 93  1  0
 93 94  1  6
 93 95  1  0
 96 98  2  0
 99 96  1  0
 96105  1  0
 97 99  1  0
 99100  1  0
 99104  1  6
100103  1  0
102101  1  0
101103  1  0
105106  1  0
106107  1  0
106109  1  6
107108  2  0
107116  1  0
109110  1  0
110111  2  0
110112  1  0
111113  1  0
112114  2  0
113115  2  0
114115  1  0
116117  1  0
117118  1  0
117120  1  6
118119  2  0
118127  1  0
120121  1  0
121122  1  0
122123  1  0
123124  1  0
124125  1  0
124126  2  0
127128  1  0
128129  1  0
128131  1  6
129130  1  0
129132  2  0
 31133  1  0
 61134  1  0
126135  1  0
M  CHG  2  12   1  21   1
M  END
$$$$
