
     RDKit          3D

135137  0  0  0  0  0  0  0  0999 V2000
  -22.4384  -13.6000    9.6825 C   0  0  0  0  0  0  0  0  0  0  0  0
  -23.1613  -13.7622   10.6601 O   0  0  0  0  0  0  0  0  0  0  0  0
  -22.9338  -13.0050    8.3927 C   0  0  0  0  0  0  0  0  0  0  0  0
  -21.1000  -13.9520    9.6480 N   0  0  0  0  0  0  0  0  0  0  0  0
  -20.3565  -14.0577    8.3963 C   0  0  2  0  0  0  0  0  0  0  0  0
  -21.3309  -13.8896    7.1939 C   0  0  0  0  0  0  0  0  0  0  0  0
  -22.3974  -14.4945    7.1068 O   0  0  0  0  0  0  0  0  0  0  0  0
  -19.5045  -15.3418    8.3213 C   0  0  0  0  0  0  0  0  0  0  0  0
  -19.1775  -15.9753    9.6856 C   0  0  0  0  0  0  0  0  0  0  0  0
  -18.8889  -14.8858   10.7286 C   0  0  0  0  0  0  0  0  0  0  0  0
  -17.4047  -14.6624   11.0055 C   0  0  0  0  0  0  0  0  0  0  0  0
  -17.2129  -13.8232   12.2118 N   0  0  0  0  0  4  0  0  0  0  0  0
  -20.8991  -12.9860    6.2335 N   0  0  0  0  0  0  0  0  0  0  0  0
  -21.2159  -13.1607    4.8029 C   0  0  2  0  0  0  0  0  0  0  0  0
  -19.8761  -13.4943    4.0875 C   0  0  0  0  0  0  0  0  0  0  0  0
  -19.8719  -13.8149    2.8945 O   0  0  0  0  0  0  0  0  0  0  0  0
  -22.0826  -12.0475    4.1954 C   0  0  0  0  0  0  0  0  0  0  0  0
  -21.5399  -11.5699    2.8320 C   0  0  0  0  0  0  0  0  0  0  0  0
  -21.3034  -10.0573    2.7355 C   0  0  0  0  0  0  0  0  0  0  0  0
  -20.6897   -9.6246    1.4141 C   0  0  0  0  0  0  0  0  0  0  0  0
  -20.1296   -8.2682    1.5441 N   0  0  0  0  0  4  0  0  0  0  0  0
  -18.7047  -13.2465    4.7758 N   0  0  0  0  0  0  0  0  0  0  0  0
  -17.4245  -13.7128    4.2061 C   0  0  2  0  0  0  0  0  0  0  0  0
  -17.1428  -13.2988    2.7443 C   0  0  0  0  0  0  0  0  0  0  0  0
  -17.8278  -13.7243    1.8145 O   0  0  0  0  0  0  0  0  0  0  0  0
  -17.3433  -15.2569    4.2909 C   0  0  0  0  0  0  0  0  0  0  0  0
  -15.9102  -15.7980    4.3095 C   0  0  0  0  0  0  0  0  0  0  0  0
  -15.8530  -17.3056    4.5539 C   0  0  0  0  0  0  0  0  0  0  0  0
  -15.1946  -17.6610    5.8036 N   0  0  0  0  0  0  0  0  0  0  0  0
  -15.8356  -17.9201    6.9659 C   0  0  0  0  0  0  0  0  0  0  0  0
  -16.1388  -17.0736    7.8838 N   0  0  0  0  0  0  0  0  0  0  0  0
  -16.1695  -19.2239    7.0510 N   0  0  0  0  0  0  0  0  0  0  0  0
  -16.0485  -12.4840    2.5161 N   0  0  0  0  0  0  0  0  0  0  0  0
  -16.1145  -11.4795    1.4239 C   0  0  2  0  0  0  0  0  0  0  0  0
  -16.2973  -10.0696    2.0600 C   0  0  0  0  0  0  0  0  0  0  0  0
  -17.4068   -9.6972    2.4598 O   0  0  0  0  0  0  0  0  0  0  0  0
  -17.1866  -11.8646    0.3725 C   0  0  0  0  0  0  0  0  0  0  0  0
  -18.2207  -12.8808    0.8231 C   0  0  0  0  0  0  0  0  0  0  0  0
  -19.4506  -12.4354    1.3398 C   0  0  0  0  0  0  0  0  0  0  0  0
  -17.9912  -14.2619    0.7408 C   0  0  0  0  0  0  0  0  0  0  0  0
  -20.4383  -13.3475    1.7228 C   0  0  0  0  0  0  0  0  0  0  0  0
  -18.9847  -15.1709    1.1121 C   0  0  0  0  0  0  0  0  0  0  0  0
  -20.2001  -14.7095    1.5975 C   0  0  0  0  0  0  0  0  0  0  0  0
  -21.1367  -15.6354    1.9410 O   0  0  0  0  0  0  0  0  0  0  0  0
  -15.1701   -9.3245    2.2770 N   0  0  0  0  0  0  0  0  0  0  0  0
  -15.1512   -7.9811    2.8662 C   0  0  2  0  0  0  0  0  0  0  0  0
  -15.6014   -6.9692    1.7860 C   0  0  0  0  0  0  0  0  0  0  0  0
  -15.7778   -7.3030    0.6164 O   0  0  0  0  0  0  0  0  0  0  0  0
  -13.7360   -7.6339    3.3441 C   0  0  0  0  0  0  0  0  0  0  0  0
  -12.7791   -8.3205    2.5379 O   0  0  0  0  0  0  0  0  0  0  0  0
  -15.7736   -5.6785    2.2360 N   0  0  0  0  0  0  0  0  0  0  0  0
  -16.8471   -5.2854    3.1700 C   0  0  2  0  0  0  0  0  0  0  0  0
  -17.1761   -6.4704    4.1274 C   0  0  0  0  0  0  0  0  0  0  0  0
  -17.4658   -7.5966    3.7285 O   0  0  0  0  0  0  0  0  0  0  0  0
  -18.1586   -4.8972    2.4462 C   0  0  0  0  0  0  0  0  0  0  0  0
  -18.0374   -4.0056    1.1981 C   0  0  0  0  0  0  0  0  0  0  0  0
  -18.9434   -2.7751    1.1586 C   0  0  0  0  0  0  0  0  0  0  0  0
  -18.8414   -2.1253   -0.1323 N   0  0  0  0  0  0  0  0  0  0  0  0
  -19.9087   -1.5545   -0.7318 C   0  0  0  0  0  0  0  0  0  0  0  0
  -20.9847   -1.5778    0.0822 N   0  0  0  0  0  0  0  0  0  0  0  0
  -19.9008   -1.0125   -1.8917 N   0  0  0  0  0  0  0  0  0  0  0  0
  -16.4384   -3.9388    4.7607 C   0  0  0  0  0  0  0  0  0  0  0  0
  -16.9632   -6.1815    5.4658 N   0  0  0  0  0  0  0  0  0  0  0  0
  -16.8430   -2.8017    4.5844 O   0  0  0  0  0  0  0  0  0  0  0  0
  -16.8002   -4.8032    6.0009 C   0  0  1  0  0  0  0  0  0  0  0  0
  -15.6198   -4.6478    7.0088 C   0  0  0  0  0  0  0  0  0  0  0  0
  -15.2150   -2.0455    7.1943 C   0  0  0  0  0  0  0  0  0  0  0  0
  -16.1142   -0.9032    7.5921 C   0  0  0  0  0  0  0  0  0  0  0  0
  -15.6179   -3.3674    7.8824 C   0  0  0  0  0  0  0  0  0  0  0  0
  -18.1392   -4.3500    6.5977 C   0  0  0  0  0  0  0  0  0  0  0  0
  -15.4798   -4.4640    3.9176 N   0  0  0  0  0  0  0  0  0  0  0  0
  -14.8211   -3.6077    2.9321 C   0  0  2  0  0  0  0  0  0  0  0  0
  -15.6399   -3.0353    1.7441 C   0  0  0  0  0  0  0  0  0  0  0  0
  -15.3712   -1.8910    1.3349 O   0  0  0  0  0  0  0  0  0  0  0  0
  -13.5030   -4.2664    2.4656 C   0  0  0  0  0  0  0  0  0  0  0  0
  -13.5316   -5.7975    2.4799 C   0  0  0  0  0  0  0  0  0  0  0  0
  -14.7222   -6.3556    1.7255 C   0  0  0  0  0  0  0  0  0  0  0  0
  -15.6732   -5.6608    1.3607 O   0  0  0  0  0  0  0  0  0  0  0  0
  -14.6957   -7.6942    1.4965 N   0  0  0  0  0  0  0  0  0  0  0  0
  -16.5130   -3.7078    0.9612 N   0  0  0  0  0  0  0  0  0  0  0  0
  -17.1337   -5.0362    0.9783 C   0  0  2  0  0  0  0  0  0  0  0  0
  -18.2374   -5.0794    2.0512 C   0  0  0  0  0  0  0  0  0  0  0  0
  -18.0904   -5.6675    3.1181 O   0  0  0  0  0  0  0  0  0  0  0  0
  -16.0954   -6.1690    1.0466 C   0  0  0  0  0  0  0  0  0  0  0  0
  -14.6437   -5.7637    1.3546 C   0  0  1  0  0  0  0  0  0  0  0  0
  -14.0303   -4.9438    0.2294 C   0  0  0  0  0  0  0  0  0  0  0  0
  -14.6150   -4.9362    2.6463 C   0  0  0  0  0  0  0  0  0  0  0  0
  -19.3903   -4.3712    1.7688 N   0  0  0  0  0  0  0  0  0  0  0  0
  -19.5557   -2.9940    2.3319 C   0  0  2  0  0  0  0  0  0  0  0  0
  -20.1920   -3.1611    3.7349 C   0  0  0  0  0  0  0  0  0  0  0  0
  -20.6630   -4.2606    4.0561 O   0  0  0  0  0  0  0  0  0  0  0  0
  -20.5250   -2.2031    1.4469 C   0  0  0  0  0  0  0  0  0  0  0  0
  -20.6461   -0.7119    1.8054 C   0  0  1  0  0  0  0  0  0  0  0  0
  -22.0966   -0.3819    2.1629 C   0  0  0  0  0  0  0  0  0  0  0  0
  -19.7343   -0.3414    2.9783 C   0  0  0  0  0  0  0  0  0  0  0  0
  -21.0900    0.2050    4.3645 C   0  0  0  0  0  0  0  0  0  0  0  0
  -20.3182   -2.1887    4.6679 N   0  0  0  0  0  0  0  0  0  0  0  0
  -21.0563    1.4140    4.5762 O   0  0  0  0  0  0  0  0  0  0  0  0
  -19.9480   -0.7408    4.8408 C   0  0  1  0  0  0  0  0  0  0  0  0
  -18.6599   -0.3305    4.0832 C   0  0  0  0  0  0  0  0  0  0  0  0
  -16.4883    0.3648    5.3727 C   0  0  0  0  0  0  0  0  0  0  0  0
  -16.6495    0.0816    6.8405 C   0  0  0  0  0  0  0  0  0  0  0  0
  -17.7783    0.8074    4.6424 C   0  0  0  0  0  0  0  0  0  0  0  0
  -19.8635   -0.5208    6.3614 C   0  0  0  0  0  0  0  0  0  0  0  0
  -22.1178   -0.3736    3.6613 N   0  0  0  0  0  0  0  0  0  0  0  0
  -22.6416   -1.7266    3.9267 C   0  0  2  0  0  0  0  0  0  0  0  0
  -24.0254   -2.1794    3.3739 C   0  0  0  0  0  0  0  0  0  0  0  0
  -25.0095   -1.4396    3.4049 O   0  0  0  0  0  0  0  0  0  0  0  0
  -22.4207   -2.2035    5.3849 C   0  0  0  0  0  0  0  0  0  0  0  0
  -22.8732   -3.6028    5.7255 C   0  0  0  0  0  0  0  0  0  0  0  0
  -22.8824   -4.0706    7.0453 C   0  0  0  0  0  0  0  0  0  0  0  0
  -23.3551   -4.4470    4.7124 C   0  0  0  0  0  0  0  0  0  0  0  0
  -23.3112   -5.3682    7.3375 C   0  0  0  0  0  0  0  0  0  0  0  0
  -23.8014   -5.7380    5.0091 C   0  0  0  0  0  0  0  0  0  0  0  0
  -23.7689   -6.2027    6.3207 C   0  0  0  0  0  0  0  0  0  0  0  0
  -24.1181   -3.4926    2.9358 N   0  0  0  0  0  0  0  0  0  0  0  0
  -25.2445   -3.8579    2.0584 C   0  0  2  0  0  0  0  0  0  0  0  0
  -25.6815   -5.3169    2.3371 C   0  0  0  0  0  0  0  0  0  0  0  0
  -24.8807   -6.2425    2.4193 O   0  0  0  0  0  0  0  0  0  0  0  0
  -24.8827   -3.7397    0.5668 C   0  0  0  0  0  0  0  0  0  0  0  0
  -25.2869   -4.9292   -0.3094 C   0  0  0  0  0  0  0  0  0  0  0  0
  -24.7664   -6.2829    0.1774 C   0  0  0  0  0  0  0  0  0  0  0  0
  -25.6200   -7.3494   -0.3422 N   0  0  0  0  0  0  0  0  0  0  0  0
  -25.5097   -7.7242   -1.6393 C   0  0  0  0  0  0  0  0  0  0  0  0
  -25.3676   -6.6572   -2.4509 N   0  0  0  0  0  0  0  0  0  0  0  0
  -25.5181   -8.9331   -2.0590 N   0  0  0  0  0  0  0  0  0  0  0  0
  -27.0240   -5.4514    2.6548 N   0  0  0  0  0  0  0  0  0  0  0  0
  -27.4270   -5.5231    4.0584 C   0  0  2  0  0  0  0  0  0  0  0  0
  -27.9892   -6.9262    4.2825 C   0  0  0  0  0  0  0  0  0  0  0  0
  -29.0838   -7.1861    3.5412 O   0  0  0  0  0  0  0  0  0  0  0  0
  -28.4945   -4.4917    4.3653 C   0  0  0  0  0  0  0  0  0  0  0  0
  -27.5048   -7.7774    5.0178 O   0  0  0  0  0  0  0  0  0  0  0  0
  -16.0605  -16.1423    7.4778 H   0  0  0  0  0  0  0  0  0  0  0  0
  -19.0784   -1.3242   -2.4103 H   0  0  0  0  0  0  0  0  0  0  0  0
  -25.9056   -9.5520   -1.3464 H   0  0  0  0  0  0  0  0  0  0  0  0
  1  2  2  0
  1  3  1  0
  4  1  1  0
  5  4  1  0
  6  5  1  0
  5  8  1  6
  6  7  2  0
 13  6  1  0
  8  9  1  0
  9 10  1  0
 10 11  1  0
 11 12  1  0
 14 13  1  0
 15 14  1  0
 14 17  1  6
 15 16  2  0
 22 15  1  0
 17 18  1  0
 18 19  1  0
 19 20  1  0
 20 21  1  0
 23 22  1  0
 24 23  1  0
 23 26  1  6
 24 25  2  0
 33 24  1  0
 26 27  1  0
 27 28  1  0
 28 29  1  0
 29 30  1  0
 30 31  2  0
 30 32  1  0
 34 33  1  0
 35 34  1  0
 34 37  1  6
 35 36  2  0
 45 35  1  0
 37 38  1  0
 38 39  2  0
 38 40  1  0
 39 41  1  0
 40 42  2  0
 41 43  2  0
 42 43  1  0
 43 44  1  0
 46 45  1  0
 47 46  1  0
 46 49  1  6
 47 48  2  0
 51 47  1  0
 49 50  1  0
 52 51  1  0
 53 52  1  0
 52 55  1  6
 53 54  2  0
 63 53  1  0
 55 56  1  0
 56 57  1  0
 57 58  1  0
 58 59  1  0
 59 60  1  0
 59 61  2  0
 62 64  2  0
 62 65  1  0
 71 62  1  0
 65 63  1  0
 65 66  1  0
 65 70  1  1
 66 69  1  0
 67 68  1  0
 69 67  1  0
 68102  2  0
 72 71  1  0
 73 72  1  0
 72 75  1  6
 73 74  2  0
 80 73  1  0
 75 76  1  0
 76 77  1  0
 77 78  2  0
 77 79  1  0
 81 80  1  0
 82 81  1  0
 81 84  1  1
 82 83  2  0
 88 82  1  0
 84 85  1  0
 85 86  1  6
 85 87  1  0
 89 88  1  0
 90 89  1  0
 89 92  1  6
 90 91  2  0
 97 90  1  0
 92 93  1  0
 93 94  1  1
 93 95  1  0
 96 98  2  0
 99 96  1  0
 96105  1  0
 97 99  1  0
 99100  1  0
 99104  1  1
100103  1  0
102101  1  0
101103  1  0
105106  1  0
106107  1  0
106109  1  1
107108  2  0
107116  1  0
109110  1  0
110111  2  0
110112  1  0
111113  1  0
112114  2  0
113115  2  0
114115  1  0
116117  1  0
117118  1  0
117120  1  6
118119  2  0
118127  1  0
120121  1  0
121122  1  0
122123  1  0
123124  1  0
124125  1  0
124126  2  0
127128  1  0
128129  1  0
128131  1  6
129130  1  0
129132  2  0
 31133  1  0
 61134  1  0
126135  1  0
M  CHG  2  12   1  21   1
M  END
$$$$
