
     RDKit          3D

135137  0  0  0  0  0  0  0  0999 V2000
  -27.8831   -1.1628   -0.6601 C   0  0  0  0  0  0  0  0  0  0  0  0
  -28.4127   -2.2666   -0.7365 O   0  0  0  0  0  0  0  0  0  0  0  0
  -28.4994   -0.0136    0.0898 C   0  0  0  0  0  0  0  0  0  0  0  0
  -26.6755   -0.8455   -1.2580 N   0  0  0  0  0  0  0  0  0  0  0  0
  -25.9647   -1.7854   -2.1195 C   0  0  2  0  0  0  0  0  0  0  0  0
  -25.0124   -2.6659   -1.2586 C   0  0  0  0  0  0  0  0  0  0  0  0
  -25.0709   -3.8936   -1.2388 O   0  0  0  0  0  0  0  0  0  0  0  0
  -25.2563   -1.0869   -3.2989 C   0  0  0  0  0  0  0  0  0  0  0  0
  -25.9399    0.2043   -3.7839 C   0  0  0  0  0  0  0  0  0  0  0  0
  -26.8717   -0.0929   -4.9677 C   0  0  0  0  0  0  0  0  0  0  0  0
  -27.6247    1.1266   -5.4925 C   0  0  0  0  0  0  0  0  0  0  0  0
  -28.4838    0.7618   -6.6437 N   0  0  0  0  0  4  0  0  0  0  0  0
  -24.0802   -1.9464   -0.5246 N   0  0  0  0  0  0  0  0  0  0  0  0
  -23.4667   -2.4919    0.7017 C   0  0  2  0  0  0  0  0  0  0  0  0
  -22.6378   -3.7347    0.2701 C   0  0  0  0  0  0  0  0  0  0  0  0
  -22.2202   -3.8310   -0.8885 O   0  0  0  0  0  0  0  0  0  0  0  0
  -24.4333   -2.6634    1.8830 C   0  0  0  0  0  0  0  0  0  0  0  0
  -23.8123   -3.4976    3.0231 C   0  0  0  0  0  0  0  0  0  0  0  0
  -24.6147   -3.4858    4.3305 C   0  0  0  0  0  0  0  0  0  0  0  0
  -25.8408   -2.5892    4.2791 C   0  0  0  0  0  0  0  0  0  0  0  0
  -26.5878   -2.6919    5.5447 N   0  0  0  0  0  4  0  0  0  0  0  0
  -22.2437   -4.6152    1.2583 N   0  0  0  0  0  0  0  0  0  0  0  0
  -22.5845   -6.0458    1.1234 C   0  0  2  0  0  0  0  0  0  0  0  0
  -21.5508   -7.0448    1.6902 C   0  0  0  0  0  0  0  0  0  0  0  0
  -20.7298   -6.7036    2.5413 O   0  0  0  0  0  0  0  0  0  0  0  0
  -22.8175   -6.3918   -0.3679 C   0  0  0  0  0  0  0  0  0  0  0  0
  -24.2886   -6.6323   -0.7216 C   0  0  0  0  0  0  0  0  0  0  0  0
  -24.9725   -7.6082    0.2354 C   0  0  0  0  0  0  0  0  0  0  0  0
  -24.0691   -8.6184    0.7692 N   0  0  0  0  0  0  0  0  0  0  0  0
  -22.7194   -8.5487    0.7201 C   0  0  0  0  0  0  0  0  0  0  0  0
  -21.8926   -8.9920    1.5981 N   0  0  0  0  0  0  0  0  0  0  0  0
  -22.3091   -7.9625   -0.4231 N   0  0  0  0  0  0  0  0  0  0  0  0
  -21.5420   -8.3200    1.1540 N   0  0  0  0  0  0  0  0  0  0  0  0
  -20.4337   -9.2426    1.5100 C   0  0  2  0  0  0  0  0  0  0  0  0
  -19.9517   -8.9024    2.9515 C   0  0  0  0  0  0  0  0  0  0  0  0
  -20.6723   -8.2563    3.7214 O   0  0  0  0  0  0  0  0  0  0  0  0
  -19.3220   -9.2263    0.4297 C   0  0  0  0  0  0  0  0  0  0  0  0
  -18.7250   -7.8663    0.1147 C   0  0  0  0  0  0  0  0  0  0  0  0
  -18.7192   -7.4027   -1.2130 C   0  0  0  0  0  0  0  0  0  0  0  0
  -18.1743   -7.0471    1.1111 C   0  0  0  0  0  0  0  0  0  0  0  0
  -18.2152   -6.1372   -1.5269 C   0  0  0  0  0  0  0  0  0  0  0  0
  -17.6832   -5.7778    0.7966 C   0  0  0  0  0  0  0  0  0  0  0  0
  -17.7086   -5.3306   -0.5168 C   0  0  0  0  0  0  0  0  0  0  0  0
  -17.2226   -4.0848   -0.7703 O   0  0  0  0  0  0  0  0  0  0  0  0
  -18.7714   -9.4551    3.3688 N   0  0  0  0  0  0  0  0  0  0  0  0
  -18.0530   -9.0789    4.5914 C   0  0  2  0  0  0  0  0  0  0  0  0
  -16.8520   -8.1877    4.1958 C   0  0  0  0  0  0  0  0  0  0  0  0
  -15.6901   -8.5573    4.3500 O   0  0  0  0  0  0  0  0  0  0  0  0
  -17.5510  -10.3336    5.3163 C   0  0  0  0  0  0  0  0  0  0  0  0
  -17.2804  -11.3592    4.3614 O   0  0  0  0  0  0  0  0  0  0  0  0
  -17.1891   -6.9576    3.6749 N   0  0  0  0  0  0  0  0  0  0  0  0
  -17.0196   -5.6925    4.4167 C   0  0  2  0  0  0  0  0  0  0  0  0
  -17.1154   -4.4860    3.4348 C   0  0  0  0  0  0  0  0  0  0  0  0
  -16.1606   -4.0764    2.7777 O   0  0  0  0  0  0  0  0  0  0  0  0
  -15.6521   -5.5976    5.1347 C   0  0  0  0  0  0  0  0  0  0  0  0
  -14.5479   -6.5672    4.6787 C   0  0  0  0  0  0  0  0  0  0  0  0
  -14.1442   -7.6480    5.6814 C   0  0  0  0  0  0  0  0  0  0  0  0
  -15.1568   -8.6831    5.7295 N   0  0  0  0  0  0  0  0  0  0  0  0
  -16.4641   -8.4146    5.5213 C   0  0  0  0  0  0  0  0  0  0  0  0
  -17.1018   -9.4945    5.0236 N   0  0  0  0  0  0  0  0  0  0  0  0
  -17.0440   -7.3087    5.8041 N   0  0  0  0  0  0  0  0  0  0  0  0
  -19.8431   -5.9486    3.2334 C   0  0  0  0  0  0  0  0  0  0  0  0
  -18.4063   -4.0154    3.2540 N   0  0  0  0  0  0  0  0  0  0  0  0
  -20.2095   -6.9562    3.8153 O   0  0  0  0  0  0  0  0  0  0  0  0
  -19.5993   -4.5839    3.9365 C   0  0  1  0  0  0  0  0  0  0  0  0
  -20.9016   -3.7471    3.7430 C   0  0  0  0  0  0  0  0  0  0  0  0
  -22.8647   -5.3568    4.4676 C   0  0  0  0  0  0  0  0  0  0  0  0
  -23.1559   -6.0899    5.7518 C   0  0  0  0  0  0  0  0  0  0  0  0
  -22.0732   -4.0539    4.7103 C   0  0  0  0  0  0  0  0  0  0  0  0
  -19.2589   -4.7973    5.4174 C   0  0  0  0  0  0  0  0  0  0  0  0
  -19.7840   -5.9365    1.8543 N   0  0  0  0  0  0  0  0  0  0  0  0
  -20.3263   -7.0568    1.0869 C   0  0  2  0  0  0  0  0  0  0  0  0
  -19.6368   -8.4452    1.1651 C   0  0  0  0  0  0  0  0  0  0  0  0
  -20.3493   -9.4649    1.1243 O   0  0  0  0  0  0  0  0  0  0  0  0
  -20.5812   -6.6157   -0.3723 C   0  0  0  0  0  0  0  0  0  0  0  0
  -19.9233   -7.5177   -1.4206 C   0  0  0  0  0  0  0  0  0  0  0  0
  -18.7119   -8.2451   -0.8717 C   0  0  0  0  0  0  0  0  0  0  0  0
  -17.6434   -7.6815   -0.6252 O   0  0  0  0  0  0  0  0  0  0  0  0
  -18.8634   -9.5831   -0.6921 N   0  0  0  0  0  0  0  0  0  0  0  0
  -18.3108   -8.6983    1.0918 N   0  0  0  0  0  0  0  0  0  0  0  0
  -17.0850   -7.8936    1.0875 C   0  0  2  0  0  0  0  0  0  0  0  0
  -16.7940   -7.3839    2.5112 C   0  0  0  0  0  0  0  0  0  0  0  0
  -16.9815   -6.2166    2.8396 O   0  0  0  0  0  0  0  0  0  0  0  0
  -17.0906   -6.8204   -0.0146 C   0  0  0  0  0  0  0  0  0  0  0  0
  -15.7978   -6.0076   -0.1998 C   0  0  1  0  0  0  0  0  0  0  0  0
  -15.7601   -4.7837    0.7031 C   0  0  0  0  0  0  0  0  0  0  0  0
  -14.5915   -6.9000    0.1207 C   0  0  0  0  0  0  0  0  0  0  0  0
  -16.3575   -8.3296    3.4200 N   0  0  0  0  0  0  0  0  0  0  0  0
  -17.3467   -8.9517    4.3557 C   0  0  2  0  0  0  0  0  0  0  0  0
  -17.4264   -8.0273    5.5968 C   0  0  0  0  0  0  0  0  0  0  0  0
  -16.5713   -7.1439    5.7463 O   0  0  0  0  0  0  0  0  0  0  0  0
  -16.8241  -10.3220    4.7998 C   0  0  0  0  0  0  0  0  0  0  0  0
  -15.4025  -10.3041    5.3878 C   0  0  1  0  0  0  0  0  0  0  0  0
  -14.9482  -11.7341    5.6867 C   0  0  0  0  0  0  0  0  0  0  0  0
  -14.4080   -9.6422    4.4301 C   0  0  0  0  0  0  0  0  0  0  0  0
  -19.2006  -10.1635    7.7928 C   0  0  0  0  0  0  0  0  0  0  0  0
  -18.3479   -8.1064    6.5850 N   0  0  0  0  0  0  0  0  0  0  0  0
  -19.9897  -10.6359    8.6063 O   0  0  0  0  0  0  0  0  0  0  0  0
  -19.5651   -8.9224    6.9254 C   0  0  1  0  0  0  0  0  0  0  0  0
  -20.3404   -9.4350    5.6854 C   0  0  0  0  0  0  0  0  0  0  0  0
  -22.7488   -8.5649    5.1335 C   0  0  0  0  0  0  0  0  0  0  0  0
  -23.0955   -7.4092    6.0303 C   0  0  0  0  0  0  0  0  0  0  0  0
  -21.8656   -9.6579    5.7804 C   0  0  0  0  0  0  0  0  0  0  0  0
  -20.4085   -8.0290    7.8518 C   0  0  0  0  0  0  0  0  0  0  0  0
  -17.9679  -10.7282    7.5753 N   0  0  0  0  0  0  0  0  0  0  0  0
  -17.6220  -11.5226    6.3817 C   0  0  2  0  0  0  0  0  0  0  0  0
  -17.3961  -10.8442    4.9981 C   0  0  0  0  0  0  0  0  0  0  0  0
  -16.3462  -10.2606    4.7260 O   0  0  0  0  0  0  0  0  0  0  0  0
  -18.4347  -12.8360    6.2525 C   0  0  0  0  0  0  0  0  0  0  0  0
  -19.3121  -13.2181    7.4201 C   0  0  0  0  0  0  0  0  0  0  0  0
  -18.7706  -13.5421    8.6702 C   0  0  0  0  0  0  0  0  0  0  0  0
  -20.7090  -13.1951    7.2809 C   0  0  0  0  0  0  0  0  0  0  0  0
  -19.6029  -13.8871    9.7385 C   0  0  0  0  0  0  0  0  0  0  0  0
  -21.5404  -13.5222    8.3559 C   0  0  0  0  0  0  0  0  0  0  0  0
  -20.9868  -13.8792    9.5821 C   0  0  0  0  0  0  0  0  0  0  0  0
  -18.4739  -10.8445    4.1244 N   0  0  0  0  0  0  0  0  0  0  0  0
  -18.1991  -10.8047    2.6770 C   0  0  2  0  0  0  0  0  0  0  0  0
  -19.3544  -10.0858    1.9381 C   0  0  0  0  0  0  0  0  0  0  0  0
  -19.4378  -10.0538    0.7147 O   0  0  0  0  0  0  0  0  0  0  0  0
  -18.0446  -12.2131    2.0749 C   0  0  0  0  0  0  0  0  0  0  0  0
  -16.6044  -12.6819    1.8468 C   0  0  0  0  0  0  0  0  0  0  0  0
  -16.2143  -13.9390    2.6267 C   0  0  0  0  0  0  0  0  0  0  0  0
  -17.4207  -14.6701    3.0087 N   0  0  0  0  0  0  0  0  0  0  0  0
  -17.3125  -15.8110    3.7311 C   0  0  0  0  0  0  0  0  0  0  0  0
  -16.0375  -16.2461    3.7783 N   0  0  0  0  0  0  0  0  0  0  0  0
  -18.2824  -16.4052    4.3175 N   0  0  0  0  0  0  0  0  0  0  0  0
  -20.3652   -9.6384    2.7744 N   0  0  0  0  0  0  0  0  0  0  0  0
  -20.9581   -8.3218    2.5452 C   0  0  2  0  0  0  0  0  0  0  0  0
  -19.7998   -7.3305    2.4428 C   0  0  0  0  0  0  0  0  0  0  0  0
  -20.0919   -6.1160    2.9479 O   0  0  0  0  0  0  0  0  0  0  0  0
  -21.8627   -7.9310    3.6970 C   0  0  0  0  0  0  0  0  0  0  0  0
  -18.6877   -7.5799    1.9947 O   0  0  0  0  0  0  0  0  0  0  0  0
  -22.3849   -9.0289    2.4894 H   0  0  0  0  0  0  0  0  0  0  0  0
  -16.4185   -6.7265    6.3630 H   0  0  0  0  0  0  0  0  0  0  0  0
  -18.1613  -17.4169    4.2640 H   0  0  0  0  0  0  0  0  0  0  0  0
  1  2  2  0
  1  3  1  0
  4  1  1  0
  5  4  1  0
  6  5  1  0
  5  8  1  6
  6  7  2  0
 13  6  1  0
  8  9  1  0
  9 10  1  0
 10 11  1  0
 11 12  1  0
 14 13  1  0
 15 14  1  0
 14 17  1  1
 15 16  2  0
 22 15  1  0
 17 18  1  0
 18 19  1  0
 19 20  1  0
 20 21  1  0
 23 22  1  0
 24 23  1  0
 23 26  1  6
 24 25  2  0
 33 24  1  0
 26 27  1  0
 27 28  1  0
 28 29  1  0
 29 30  1  0
 30 31  2  0
 30 32  1  0
 34 33  1  0
 35 34  1  0
 34 37  1  6
 35 36  2  0
 45 35  1  0
 37 38  1  0
 38 39  2  0
 38 40  1  0
 39 41  1  0
 40 42  2  0
 41 43  2  0
 42 43  1  0
 43 44  1  0
 46 45  1  0
 47 46  1  0
 46 49  1  6
 47 48  2  0
 51 47  1  0
 49 50  1  0
 52 51  1  0
 53 52  1  0
 52 55  1  6
 53 54  2  0
 63 53  1  0
 55 56  1  0
 56 57  1  0
 57 58  1  0
 58 59  1  0
 59 60  1  0
 59 61  2  0
 62 64  2  0
 62 65  1  0
 71 62  1  0
 65 63  1  0
 65 66  1  0
 65 70  1  1
 66 69  1  0
 67 68  1  0
 69 67  1  0
 68102  2  0
 72 71  1  0
 73 72  1  0
 72 75  1  6
 73 74  2  0
 80 73  1  0
 75 76  1  0
 76 77  1  0
 77 78  2  0
 77 79  1  0
 81 80  1  0
 82 81  1  0
 81 84  1  6
 82 83  2  0
 88 82  1  0
 84 85  1  0
 85 86  1  1
 85 87  1  0
 89 88  1  0
 90 89  1  0
 89 92  1  1
 90 91  2  0
 97 90  1  0
 92 93  1  0
 93 94  1  6
 93 95  1  0
 96 98  2  0
 99 96  1  0
 96105  1  0
 97 99  1  0
 99100  1  0
 99104  1  1
100103  1  0
102101  1  0
101103  1  0
105106  1  0
106107  1  0
106109  1  6
107108  2  0
107116  1  0
109110  1  0
110111  2  0
110112  1  0
111113  1  0
112114  2  0
113115  2  0
114115  1  0
116117  1  0
117118  1  0
117120  1  6
118119  2  0
118127  1  0
120121  1  0
121122  1  0
122123  1  0
123124  1  0
124125  1  0
124126  2  0
127128  1  0
128129  1  0
128131  1  1
129130  1  0
129132  2  0
 31133  1  0
 61134  1  0
126135  1  0
M  CHG  2  12   1  21   1
M  END
$$$$
