
     RDKit          3D

135137  0  0  0  0  0  0  0  0999 V2000
  -20.5856  -12.7796   12.5378 C   0  0  0  0  0  0  0  0  0  0  0  0
  -21.8059  -12.7142   12.6443 O   0  0  0  0  0  0  0  0  0  0  0  0
  -19.6501  -12.4403   13.6660 C   0  0  0  0  0  0  0  0  0  0  0  0
  -19.9335  -13.1579   11.3768 N   0  0  0  0  0  0  0  0  0  0  0  0
  -19.4609  -12.1832   10.3985 C   0  0  2  0  0  0  0  0  0  0  0  0
  -18.8178  -12.9249    9.1903 C   0  0  0  0  0  0  0  0  0  0  0  0
  -18.2295  -13.9986    9.2999 O   0  0  0  0  0  0  0  0  0  0  0  0
  -18.5395  -11.1158   11.0248 C   0  0  0  0  0  0  0  0  0  0  0  0
  -19.0616  -10.5096   12.3400 C   0  0  0  0  0  0  0  0  0  0  0  0
  -19.7799   -9.1793   12.0706 C   0  0  0  0  0  0  0  0  0  0  0  0
  -19.6049   -8.6505   10.6497 C   0  0  0  0  0  0  0  0  0  0  0  0
  -20.4916   -7.4883   10.4057 N   0  0  0  0  0  4  0  0  0  0  0  0
  -18.9776  -12.2767    7.9739 N   0  0  0  0  0  0  0  0  0  0  0  0
  -18.4220  -12.8246    6.7214 C   0  0  2  0  0  0  0  0  0  0  0  0
  -17.5975  -11.6825    6.0628 C   0  0  0  0  0  0  0  0  0  0  0  0
  -17.2799  -11.7534    4.8711 O   0  0  0  0  0  0  0  0  0  0  0  0
  -19.4371  -13.5636    5.8366 C   0  0  0  0  0  0  0  0  0  0  0  0
  -18.7601  -14.2648    4.6402 C   0  0  0  0  0  0  0  0  0  0  0  0
  -19.7349  -14.8869    3.6321 C   0  0  0  0  0  0  0  0  0  0  0  0
  -19.3152  -14.6895    2.1848 C   0  0  0  0  0  0  0  0  0  0  0  0
  -19.2200  -15.9956    1.5100 N   0  0  0  0  0  4  0  0  0  0  0  0
  -17.3974  -10.5316    6.7994 N   0  0  0  0  0  0  0  0  0  0  0  0
  -16.8712   -9.3287    6.1234 C   0  0  2  0  0  0  0  0  0  0  0  0
  -17.3550   -9.1000    4.6737 C   0  0  0  0  0  0  0  0  0  0  0  0
  -16.8686   -9.7229    3.7301 O   0  0  0  0  0  0  0  0  0  0  0  0
  -15.3232   -9.3678    6.1112 C   0  0  0  0  0  0  0  0  0  0  0  0
  -14.6932   -9.2465    7.5025 C   0  0  0  0  0  0  0  0  0  0  0  0
  -13.1707   -9.3759    7.4729 C   0  0  0  0  0  0  0  0  0  0  0  0
  -12.4873   -8.2801    8.1464 N   0  0  0  0  0  0  0  0  0  0  0  0
  -11.1504   -8.2063    8.3365 C   0  0  0  0  0  0  0  0  0  0  0  0
  -10.5027   -7.2437    8.8888 N   0  0  0  0  0  0  0  0  0  0  0  0
  -10.5386   -9.3224    7.8908 N   0  0  0  0  0  0  0  0  0  0  0  0
  -18.3095   -8.1194    4.4714 N   0  0  0  0  0  0  0  0  0  0  0  0
  -19.3806   -8.3536    3.4694 C   0  0  2  0  0  0  0  0  0  0  0  0
  -19.3457   -7.1949    2.4292 C   0  0  0  0  0  0  0  0  0  0  0  0
  -18.2708   -6.6913    2.0821 O   0  0  0  0  0  0  0  0  0  0  0  0
  -20.7529   -8.5719    4.1568 C   0  0  0  0  0  0  0  0  0  0  0  0
  -21.1117  -10.0121    4.4760 C   0  0  0  0  0  0  0  0  0  0  0  0
  -22.3374  -10.2982    5.1034 C   0  0  0  0  0  0  0  0  0  0  0  0
  -20.2559  -11.0785    4.1635 C   0  0  0  0  0  0  0  0  0  0  0  0
  -22.7136  -11.6177    5.3710 C   0  0  0  0  0  0  0  0  0  0  0  0
  -20.6400  -12.3968    4.4203 C   0  0  0  0  0  0  0  0  0  0  0  0
  -21.8644  -12.6580    5.0188 C   0  0  0  0  0  0  0  0  0  0  0  0
  -22.1938  -13.9594    5.2433 O   0  0  0  0  0  0  0  0  0  0  0  0
  -20.5252   -6.8539    1.8249 N   0  0  0  0  0  0  0  0  0  0  0  0
  -20.6400   -6.1233    0.5578 C   0  0  2  0  0  0  0  0  0  0  0  0
  -22.1164   -6.1739    0.0986 C   0  0  0  0  0  0  0  0  0  0  0  0
  -22.5842   -7.1532   -0.4782 O   0  0  0  0  0  0  0  0  0  0  0  0
  -19.7436   -6.7680   -0.5065 C   0  0  0  0  0  0  0  0  0  0  0  0
  -18.3999   -6.8219   -0.0285 O   0  0  0  0  0  0  0  0  0  0  0  0
  -22.8492   -5.0406    0.3756 N   0  0  0  0  0  0  0  0  0  0  0  0
  -22.5323   -3.7152   -0.1921 C   0  0  2  0  0  0  0  0  0  0  0  0
  -23.8455   -2.9994   -0.6307 C   0  0  0  0  0  0  0  0  0  0  0  0
  -24.1537   -2.8219   -1.8075 O   0  0  0  0  0  0  0  0  0  0  0  0
  -21.6139   -3.7997   -1.4346 C   0  0  0  0  0  0  0  0  0  0  0  0
  -20.7448   -2.5707   -1.7535 C   0  0  0  0  0  0  0  0  0  0  0  0
  -19.3112   -2.8568   -2.1999 C   0  0  0  0  0  0  0  0  0  0  0  0
  -18.7833   -1.7221   -2.9300 N   0  0  0  0  0  0  0  0  0  0  0  0
  -18.0817   -1.8721   -4.0744 C   0  0  0  0  0  0  0  0  0  0  0  0
  -17.9014   -0.6826   -4.6853 N   0  0  0  0  0  0  0  0  0  0  0  0
  -17.6002   -2.9776   -4.5049 N   0  0  0  0  0  0  0  0  0  0  0  0
  -24.7575   -4.8401    1.5596 C   0  0  0  0  0  0  0  0  0  0  0  0
  -24.7051   -2.7189    0.4194 N   0  0  0  0  0  0  0  0  0  0  0  0
  -24.1270   -5.6915    2.1642 O   0  0  0  0  0  0  0  0  0  0  0  0
  -24.5763   -3.3117    1.7775 C   0  0  1  0  0  0  0  0  0  0  0  0
  -25.6938   -2.8706    2.7725 C   0  0  0  0  0  0  0  0  0  0  0  0
  -25.5497   -4.5898    4.7710 C   0  0  0  0  0  0  0  0  0  0  0  0
  -24.4315   -4.9664    5.7087 C   0  0  0  0  0  0  0  0  0  0  0  0
  -25.4260   -3.1326    4.2766 C   0  0  0  0  0  0  0  0  0  0  0  0
  -23.1694   -3.0096    2.3104 C   0  0  0  0  0  0  0  0  0  0  0  0
  -25.8084   -5.2136    0.7461 N   0  0  0  0  0  0  0  0  0  0  0  0
  -26.2804   -6.5976    0.7465 C   0  0  2  0  0  0  0  0  0  0  0  0
  -25.3668   -7.7197    0.1847 C   0  0  0  0  0  0  0  0  0  0  0  0
  -25.3947   -8.8373    0.7318 O   0  0  0  0  0  0  0  0  0  0  0  0
  -27.7087   -6.6626    0.1595 C   0  0  0  0  0  0  0  0  0  0  0  0
  -28.8047   -6.2247    1.1353 C   0  0  0  0  0  0  0  0  0  0  0  0
  -28.3180   -6.2009    2.5708 C   0  0  0  0  0  0  0  0  0  0  0  0
  -28.7491   -5.4117    3.4143 O   0  0  0  0  0  0  0  0  0  0  0  0
  -27.3406   -7.0945    2.8730 N   0  0  0  0  0  0  0  0  0  0  0  0
  -24.6560   -7.6883   -0.9647 N   0  0  0  0  0  0  0  0  0  0  0  0
  -24.3238   -6.6725   -1.9687 C   0  0  2  0  0  0  0  0  0  0  0  0
  -23.2476   -5.7233   -1.4100 C   0  0  0  0  0  0  0  0  0  0  0  0
  -23.5078   -4.5810   -1.0455 O   0  0  0  0  0  0  0  0  0  0  0  0
  -25.5739   -5.9909   -2.5507 C   0  0  0  0  0  0  0  0  0  0  0  0
  -26.8775   -6.8078   -2.5444 C   0  0  1  0  0  0  0  0  0  0  0  0
  -27.1431   -7.4671   -3.8895 C   0  0  0  0  0  0  0  0  0  0  0  0
  -26.7849   -7.8956   -1.4664 C   0  0  0  0  0  0  0  0  0  0  0  0
  -21.9744   -6.2481   -1.2907 N   0  0  0  0  0  0  0  0  0  0  0  0
  -21.5245   -6.7735    0.0369 C   0  0  2  0  0  0  0  0  0  0  0  0
  -20.9295   -5.5710    0.8122 C   0  0  0  0  0  0  0  0  0  0  0  0
  -20.6948   -4.5181    0.2037 O   0  0  0  0  0  0  0  0  0  0  0  0
  -20.4169   -7.8095   -0.1827 C   0  0  0  0  0  0  0  0  0  0  0  0
  -20.9145   -9.2596   -0.3123 C   0  0  1  0  0  0  0  0  0  0  0  0
  -20.4835  -10.0660    0.9144 C   0  0  0  0  0  0  0  0  0  0  0  0
  -22.4379   -9.3191   -0.4529 C   0  0  0  0  0  0  0  0  0  0  0  0
  -19.3505   -7.3156    3.4573 C   0  0  0  0  0  0  0  0  0  0  0  0
  -20.5998   -5.5603    2.1249 N   0  0  0  0  0  0  0  0  0  0  0  0
  -19.3720   -8.5282    3.6492 O   0  0  0  0  0  0  0  0  0  0  0  0
  -20.6612   -6.4878    3.3077 C   0  0  1  0  0  0  0  0  0  0  0  0
  -21.8401   -7.4921    3.2537 C   0  0  0  0  0  0  0  0  0  0  0  0
  -23.8140   -7.3639    4.9711 C   0  0  0  0  0  0  0  0  0  0  0  0
  -23.7075   -6.1030    5.7829 C   0  0  0  0  0  0  0  0  0  0  0  0
  -22.4641   -8.0044    4.5702 C   0  0  0  0  0  0  0  0  0  0  0  0
  -20.6905   -5.5710    4.5432 C   0  0  0  0  0  0  0  0  0  0  0  0
  -18.1684   -6.6295    3.3245 N   0  0  0  0  0  0  0  0  0  0  0  0
  -17.8192   -5.4269    4.1038 C   0  0  2  0  0  0  0  0  0  0  0  0
  -16.3626   -5.1788    4.5961 C   0  0  0  0  0  0  0  0  0  0  0  0
  -16.0116   -4.0940    5.0618 O   0  0  0  0  0  0  0  0  0  0  0  0
  -18.8632   -5.0662    5.1911 C   0  0  0  0  0  0  0  0  0  0  0  0
  -18.3359   -4.7377    6.5670 C   0  0  0  0  0  0  0  0  0  0  0  0
  -18.2581   -5.7074    7.5741 C   0  0  0  0  0  0  0  0  0  0  0  0
  -17.8531   -3.4480    6.8403 C   0  0  0  0  0  0  0  0  0  0  0  0
  -17.7608   -5.3817    8.8389 C   0  0  0  0  0  0  0  0  0  0  0  0
  -17.3386   -3.1290    8.1003 C   0  0  0  0  0  0  0  0  0  0  0  0
  -17.3028   -4.0933    9.1034 C   0  0  0  0  0  0  0  0  0  0  0  0
  -15.4555   -6.2087    4.3921 N   0  0  0  0  0  0  0  0  0  0  0  0
  -14.4419   -6.4623    5.4313 C   0  0  2  0  0  0  0  0  0  0  0  0
  -13.1894   -7.1188    4.8007 C   0  0  0  0  0  0  0  0  0  0  0  0
  -12.9500   -8.3177    4.9014 O   0  0  0  0  0  0  0  0  0  0  0  0
  -14.9659   -7.3915    6.5412 C   0  0  0  0  0  0  0  0  0  0  0  0
  -15.7947   -8.5890    6.0665 C   0  0  0  0  0  0  0  0  0  0  0  0
  -16.1082   -9.6166    7.1557 C   0  0  0  0  0  0  0  0  0  0  0  0
  -16.6273   -8.9317    8.3378 N   0  0  0  0  0  0  0  0  0  0  0  0
  -17.4357   -9.5973    9.1972 C   0  0  0  0  0  0  0  0  0  0  0  0
  -18.7355   -9.3317    8.9581 N   0  0  0  0  0  0  0  0  0  0  0  0
  -17.0363  -10.3959   10.1140 N   0  0  0  0  0  0  0  0  0  0  0  0
  -12.4655   -6.2724    3.9756 N   0  0  0  0  0  0  0  0  0  0  0  0
  -11.0904   -5.9250    4.3306 C   0  0  2  0  0  0  0  0  0  0  0  0
  -10.6160   -4.9016    3.2999 C   0  0  0  0  0  0  0  0  0  0  0  0
  -11.6073   -4.4393    2.5131 O   0  0  0  0  0  0  0  0  0  0  0  0
  -10.1966   -7.1483    4.2824 C   0  0  0  0  0  0  0  0  0  0  0  0
   -9.4709   -4.4814    3.1896 O   0  0  0  0  0  0  0  0  0  0  0  0
  -11.1815   -6.5310    9.1522 H   0  0  0  0  0  0  0  0  0  0  0  0
  -17.7416   -3.7085   -3.8061 H   0  0  0  0  0  0  0  0  0  0  0  0
  -16.8744  -11.3259    9.7267 H   0  0  0  0  0  0  0  0  0  0  0  0
  1  2  2  0
  1  3  1  0
  4  1  1  0
  5  4  1  0
  6  5  1  0
  5  8  1  1
  6  7  2  0
 13  6  1  0
  8  9  1  0
  9 10  1  0
 10 11  1  0
 11 12  1  0
 14 13  1  0
 15 14  1  0
 14 17  1  6
 15 16  2  0
 22 15  1  0
 17 18  1  0
 18 19  1  0
 19 20  1  0
 20 21  1  0
 23 22  1  0
 24 23  1  0
 23 26  1  6
 24 25  2  0
 33 24  1  0
 26 27  1  0
 27 28  1  0
 28 29  1  0
 29 30  1  0
 30 31  2  0
 30 32  1  0
 34 33  1  0
 35 34  1  0
 34 37  1  1
 35 36  2  0
 45 35  1  0
 37 38  1  0
 38 39  2  0
 38 40  1  0
 39 41  1  0
 40 42  2  0
 41 43  2  0
 42 43  1  0
 43 44  1  0
 46 45  1  0
 47 46  1  0
 46 49  1  6
 47 48  2  0
 51 47  1  0
 49 50  1  0
 52 51  1  0
 53 52  1  0
 52 55  1  6
 53 54  2  0
 63 53  1  0
 55 56  1  0
 56 57  1  0
 57 58  1  0
 58 59  1  0
 59 60  1  0
 59 61  2  0
 62 64  2  0
 62 65  1  0
 71 62  1  0
 65 63  1  0
 65 66  1  0
 65 70  1  1
 66 69  1  0
 67 68  1  0
 69 67  1  0
 68102  2  0
 72 71  1  0
 73 72  1  0
 72 75  1  6
 73 74  2  0
 80 73  1  0
 75 76  1  0
 76 77  1  0
 77 78  2  0
 77 79  1  0
 81 80  1  0
 82 81  1  0
 81 84  1  1
 82 83  2  0
 88 82  1  0
 84 85  1  0
 85 86  1  6
 85 87  1  0
 89 88  1  0
 90 89  1  0
 89 92  1  6
 90 91  2  0
 97 90  1  0
 92 93  1  0
 93 94  1  1
 93 95  1  0
 96 98  2  0
 99 96  1  0
 96105  1  0
 97 99  1  0
 99100  1  0
 99104  1  1
100103  1  0
102101  1  0
101103  1  0
105106  1  0
106107  1  0
106109  1  1
107108  2  0
107116  1  0
109110  1  0
110111  2  0
110112  1  0
111113  1  0
112114  2  0
113115  2  0
114115  1  0
116117  1  0
117118  1  0
117120  1  1
118119  2  0
118127  1  0
120121  1  0
121122  1  0
122123  1  0
123124  1  0
124125  1  0
124126  2  0
127128  1  0
128129  1  0
128131  1  6
129130  1  0
129132  2  0
 31133  1  0
 61134  1  0
126135  1  0
M  CHG  2  12   1  21   1
M  END
$$$$
