
     RDKit          3D

135137  0  0  0  0  0  0  0  0999 V2000
  -28.1672   -0.1109   -7.0053 C   0  0  0  0  0  0  0  0  0  0  0  0
  -29.0241   -0.9268   -6.6816 O   0  0  0  0  0  0  0  0  0  0  0  0
  -28.3053    0.7819   -8.2081 C   0  0  0  0  0  0  0  0  0  0  0  0
  -26.9808    0.0736   -6.3160 N   0  0  0  0  0  0  0  0  0  0  0  0
  -26.0342   -1.0150   -6.0938 C   0  0  2  0  0  0  0  0  0  0  0  0
  -26.6128   -2.0039   -5.0399 C   0  0  0  0  0  0  0  0  0  0  0  0
  -27.7933   -2.0019   -4.6972 O   0  0  0  0  0  0  0  0  0  0  0  0
  -24.6193   -0.5066   -5.7468 C   0  0  0  0  0  0  0  0  0  0  0  0
  -23.5872   -0.6600   -6.8787 C   0  0  0  0  0  0  0  0  0  0  0  0
  -22.2060   -1.0054   -6.3033 C   0  0  0  0  0  0  0  0  0  0  0  0
  -21.3054    0.2045   -6.0698 C   0  0  0  0  0  0  0  0  0  0  0  0
  -20.2412   -0.1109   -5.0877 N   0  0  0  0  0  4  0  0  0  0  0  0
  -25.6839   -2.8993   -4.5293 N   0  0  0  0  0  0  0  0  0  0  0  0
  -25.9940   -3.7710   -3.3797 C   0  0  2  0  0  0  0  0  0  0  0  0
  -24.6914   -3.8771   -2.5371 C   0  0  0  0  0  0  0  0  0  0  0  0
  -23.6859   -4.4145   -3.0128 O   0  0  0  0  0  0  0  0  0  0  0  0
  -26.7102   -5.0811   -3.7406 C   0  0  0  0  0  0  0  0  0  0  0  0
  -28.2248   -5.0112   -3.4537 C   0  0  0  0  0  0  0  0  0  0  0  0
  -28.9007   -3.7132   -3.9139 C   0  0  0  0  0  0  0  0  0  0  0  0
  -30.4151   -3.8148   -3.9910 C   0  0  0  0  0  0  0  0  0  0  0  0
  -30.9200   -2.9425   -5.0654 N   0  0  0  0  0  4  0  0  0  0  0  0
  -24.6513   -3.2008   -1.3336 N   0  0  0  0  0  0  0  0  0  0  0  0
  -23.4912   -3.3926   -0.4403 C   0  0  2  0  0  0  0  0  0  0  0  0
  -23.7316   -4.2811    0.8010 C   0  0  0  0  0  0  0  0  0  0  0  0
  -24.8474   -4.7313    1.0603 O   0  0  0  0  0  0  0  0  0  0  0  0
  -22.9713   -2.0181    0.0479 C   0  0  0  0  0  0  0  0  0  0  0  0
  -23.4882   -1.6213    1.4344 C   0  0  0  0  0  0  0  0  0  0  0  0
  -23.5986   -0.1072    1.6107 C   0  0  0  0  0  0  0  0  0  0  0  0
  -22.4976    0.4647    2.3737 N   0  0  0  0  0  0  0  0  0  0  0  0
  -22.4139    0.4656    3.7234 C   0  0  0  0  0  0  0  0  0  0  0  0
  -23.3661    0.2345    4.5546 N   0  0  0  0  0  0  0  0  0  0  0  0
  -21.1517    0.7162    4.1271 N   0  0  0  0  0  0  0  0  0  0  0  0
  -22.6568   -4.4948    1.6451 N   0  0  0  0  0  0  0  0  0  0  0  0
  -22.7266   -5.6018    2.6330 C   0  0  2  0  0  0  0  0  0  0  0  0
  -21.7416   -5.2871    3.7978 C   0  0  0  0  0  0  0  0  0  0  0  0
  -21.7183   -4.1654    4.3181 O   0  0  0  0  0  0  0  0  0  0  0  0
  -22.5110   -6.9767    1.9501 C   0  0  0  0  0  0  0  0  0  0  0  0
  -23.5349   -8.0478    2.2806 C   0  0  0  0  0  0  0  0  0  0  0  0
  -24.7836   -7.6736    2.8082 C   0  0  0  0  0  0  0  0  0  0  0  0
  -23.2775   -9.4112    2.0756 C   0  0  0  0  0  0  0  0  0  0  0  0
  -25.7618   -8.6340    3.0822 C   0  0  0  0  0  0  0  0  0  0  0  0
  -24.2612  -10.3676    2.3381 C   0  0  0  0  0  0  0  0  0  0  0  0
  -25.4951   -9.9741    2.8363 C   0  0  0  0  0  0  0  0  0  0  0  0
  -26.4210  -10.9438    3.0709 O   0  0  0  0  0  0  0  0  0  0  0  0
  -21.0089   -6.3268    4.3027 N   0  0  0  0  0  0  0  0  0  0  0  0
  -21.2309   -6.9546    5.6099 C   0  0  2  0  0  0  0  0  0  0  0  0
  -21.2826   -8.4880    5.4112 C   0  0  0  0  0  0  0  0  0  0  0  0
  -21.1757   -9.0031    4.3004 O   0  0  0  0  0  0  0  0  0  0  0  0
  -22.5532   -6.4651    6.2131 C   0  0  0  0  0  0  0  0  0  0  0  0
  -22.5368   -6.6691    7.6256 O   0  0  0  0  0  0  0  0  0  0  0  0
  -21.4681   -9.2167    6.5656 N   0  0  0  0  0  0  0  0  0  0  0  0
  -20.9182  -10.5725    6.7619 C   0  0  2  0  0  0  0  0  0  0  0  0
  -21.9804  -11.6385    6.3561 C   0  0  0  0  0  0  0  0  0  0  0  0
  -21.8780  -12.8308    6.6375 O   0  0  0  0  0  0  0  0  0  0  0  0
  -20.5207  -10.8510    8.2312 C   0  0  0  0  0  0  0  0  0  0  0  0
  -21.5333  -10.4595    9.3215 C   0  0  0  0  0  0  0  0  0  0  0  0
  -22.5020   -9.3313    8.9675 C   0  0  0  0  0  0  0  0  0  0  0  0
  -22.1411   -8.1247    9.6837 N   0  0  0  0  0  0  0  0  0  0  0  0
  -21.0246   -7.4245    9.3876 C   0  0  0  0  0  0  0  0  0  0  0  0
  -20.4276   -7.9190    8.2832 N   0  0  0  0  0  0  0  0  0  0  0  0
  -20.6077   -6.3963   10.0266 N   0  0  0  0  0  0  0  0  0  0  0  0
  -22.0050   -8.9717    5.9576 C   0  0  0  0  0  0  0  0  0  0  0  0
  -23.1220  -11.0988    5.7853 N   0  0  0  0  0  0  0  0  0  0  0  0
  -21.3584   -8.1076    5.3890 O   0  0  0  0  0  0  0  0  0  0  0  0
  -23.2332   -9.6875    5.3288 C   0  0  1  0  0  0  0  0  0  0  0  0
  -24.4983   -8.9452    5.8598 C   0  0  0  0  0  0  0  0  0  0  0  0
  -24.0150   -6.3833    5.4436 C   0  0  0  0  0  0  0  0  0  0  0  0
  -23.6965   -5.5990    4.1966 C   0  0  0  0  0  0  0  0  0  0  0  0
  -24.8803   -7.6256    5.1421 C   0  0  0  0  0  0  0  0  0  0  0  0
  -23.1425   -9.6614    3.7973 C   0  0  0  0  0  0  0  0  0  0  0  0
  -21.7639   -9.2438    7.2892 N   0  0  0  0  0  0  0  0  0  0  0  0
  -20.8693   -8.3843    8.0634 C   0  0  2  0  0  0  0  0  0  0  0  0
  -19.3533   -8.3582    7.7312 C   0  0  0  0  0  0  0  0  0  0  0  0
  -18.7400   -7.2808    7.8417 O   0  0  0  0  0  0  0  0  0  0  0  0
  -21.1301   -8.5843    9.5736 C   0  0  0  0  0  0  0  0  0  0  0  0
  -20.0872   -9.4583   10.2764 C   0  0  0  0  0  0  0  0  0  0  0  0
  -19.3069  -10.3163    9.3002 C   0  0  0  0  0  0  0  0  0  0  0  0
  -19.6371  -10.4641    8.1215 O   0  0  0  0  0  0  0  0  0  0  0  0
  -18.2204  -10.9489    9.8147 N   0  0  0  0  0  0  0  0  0  0  0  0
  -18.5542   -9.4241    7.5012 N   0  0  0  0  0  0  0  0  0  0  0  0
  -18.7513  -10.8643    7.3087 C   0  0  2  0  0  0  0  0  0  0  0  0
  -19.3162  -11.1271    5.9005 C   0  0  0  0  0  0  0  0  0  0  0  0
  -20.4895  -11.4332    5.7127 O   0  0  0  0  0  0  0  0  0  0  0  0
  -19.5282  -11.5111    8.4681 C   0  0  0  0  0  0  0  0  0  0  0  0
  -19.6967  -10.6712    9.7459 C   0  0  1  0  0  0  0  0  0  0  0  0
  -18.3680  -10.4244   10.4447 C   0  0  0  0  0  0  0  0  0  0  0  0
  -20.3259   -9.3202    9.3813 C   0  0  0  0  0  0  0  0  0  0  0  0
  -18.4385  -10.9469    4.8480 N   0  0  0  0  0  0  0  0  0  0  0  0
  -18.4572   -9.6518    4.0974 C   0  0  2  0  0  0  0  0  0  0  0  0
  -19.5186   -9.8021    2.9784 C   0  0  0  0  0  0  0  0  0  0  0  0
  -19.9680  -10.9271    2.7211 O   0  0  0  0  0  0  0  0  0  0  0  0
  -17.0882   -9.4298    3.4457 C   0  0  0  0  0  0  0  0  0  0  0  0
  -17.0514   -9.6933    1.9303 C   0  0  1  0  0  0  0  0  0  0  0  0
  -16.6683   -8.4097    1.1912 C   0  0  0  0  0  0  0  0  0  0  0  0
  -16.0557  -10.8017    1.5781 C   0  0  0  0  0  0  0  0  0  0  0  0
  -18.7283   -6.9420    1.0474 C   0  0  0  0  0  0  0  0  0  0  0  0
  -20.0010   -8.8013    2.2053 N   0  0  0  0  0  0  0  0  0  0  0  0
  -18.7492   -5.8851    0.4229 O   0  0  0  0  0  0  0  0  0  0  0  0
  -19.8455   -7.3113    2.0677 C   0  0  1  0  0  0  0  0  0  0  0  0
  -19.5132   -6.5922    3.3995 C   0  0  0  0  0  0  0  0  0  0  0  0
  -21.2175   -4.9464    4.5170 C   0  0  0  0  0  0  0  0  0  0  0  0
  -22.5416   -5.0186    3.8083 C   0  0  0  0  0  0  0  0  0  0  0  0
  -19.9762   -5.1345    3.6131 C   0  0  0  0  0  0  0  0  0  0  0  0
  -21.1511   -6.8242    1.4149 C   0  0  0  0  0  0  0  0  0  0  0  0
  -17.6975   -7.8387    0.9093 N   0  0  0  0  0  0  0  0  0  0  0  0
  -17.3743   -8.8846    1.8977 C   0  0  2  0  0  0  0  0  0  0  0  0
  -16.0071   -9.6300    1.8667 C   0  0  0  0  0  0  0  0  0  0  0  0
  -15.7948  -10.6241    2.5620 O   0  0  0  0  0  0  0  0  0  0  0  0
  -18.5504   -9.8521    2.1858 C   0  0  0  0  0  0  0  0  0  0  0  0
  -18.2000  -11.2157    2.7307 C   0  0  0  0  0  0  0  0  0  0  0  0
  -18.2901  -11.5054    4.0977 C   0  0  0  0  0  0  0  0  0  0  0  0
  -17.8302  -12.2454    1.8508 C   0  0  0  0  0  0  0  0  0  0  0  0
  -17.9662  -12.7769    4.5786 C   0  0  0  0  0  0  0  0  0  0  0  0
  -17.5247  -13.5219    2.3316 C   0  0  0  0  0  0  0  0  0  0  0  0
  -17.5819  -13.7846    3.6973 C   0  0  0  0  0  0  0  0  0  0  0  0
  -15.0077   -9.0596    1.0915 N   0  0  0  0  0  0  0  0  0  0  0  0
  -13.6345   -9.0413    1.6260 C   0  0  2  0  0  0  0  0  0  0  0  0
  -13.6483   -9.3923    3.1340 C   0  0  0  0  0  0  0  0  0  0  0  0
  -14.6851   -9.4712    3.7848 O   0  0  0  0  0  0  0  0  0  0  0  0
  -12.9623   -7.6667    1.4573 C   0  0  0  0  0  0  0  0  0  0  0  0
  -12.8932   -7.1344    0.0227 C   0  0  0  0  0  0  0  0  0  0  0  0
  -12.1189   -5.8240   -0.1321 C   0  0  0  0  0  0  0  0  0  0  0  0
  -12.1367   -5.4094   -1.5335 N   0  0  0  0  0  0  0  0  0  0  0  0
  -12.5586   -4.1639   -1.8587 C   0  0  0  0  0  0  0  0  0  0  0  0
  -13.0889   -4.1303   -3.0976 N   0  0  0  0  0  0  0  0  0  0  0  0
  -12.4887   -3.1403   -1.0938 N   0  0  0  0  0  0  0  0  0  0  0  0
  -12.4136   -9.7758    3.6339 N   0  0  0  0  0  0  0  0  0  0  0  0
  -12.2763  -10.0762    5.0581 C   0  0  2  0  0  0  0  0  0  0  0  0
  -12.2992   -8.7370    5.7935 C   0  0  0  0  0  0  0  0  0  0  0  0
  -11.4656   -7.8225    5.2606 O   0  0  0  0  0  0  0  0  0  0  0  0
  -10.9662  -10.7868    5.3345 C   0  0  0  0  0  0  0  0  0  0  0  0
  -13.0159   -8.4616    6.7476 O   0  0  0  0  0  0  0  0  0  0  0  0
  -23.7201   -0.7010    4.3604 H   0  0  0  0  0  0  0  0  0  0  0  0
  -21.3803   -5.9804   10.5487 H   0  0  0  0  0  0  0  0  0  0  0  0
  -12.8623   -3.3628   -0.1707 H   0  0  0  0  0  0  0  0  0  0  0  0
  1  2  2  0
  1  3  1  0
  4  1  1  0
  5  4  1  0
  6  5  1  0
  5  8  1  1
  6  7  2  0
 13  6  1  0
  8  9  1  0
  9 10  1  0
 10 11  1  0
 11 12  1  0
 14 13  1  0
 15 14  1  0
 14 17  1  6
 15 16  2  0
 22 15  1  0
 17 18  1  0
 18 19  1  0
 19 20  1  0
 20 21  1  0
 23 22  1  0
 24 23  1  0
 23 26  1  1
 24 25  2  0
 33 24  1  0
 26 27  1  0
 27 28  1  0
 28 29  1  0
 29 30  1  0
 30 31  2  0
 30 32  1  0
 34 33  1  0
 35 34  1  0
 34 37  1  6
 35 36  2  0
 45 35  1  0
 37 38  1  0
 38 39  2  0
 38 40  1  0
 39 41  1  0
 40 42  2  0
 41 43  2  0
 42 43  1  0
 43 44  1  0
 46 45  1  0
 47 46  1  0
 46 49  1  6
 47 48  2  0
 51 47  1  0
 49 50  1  0
 52 51  1  0
 53 52  1  0
 52 55  1  1
 53 54  2  0
 63 53  1  0
 55 56  1  0
 56 57  1  0
 57 58  1  0
 58 59  1  0
 59 60  1  0
 59 61  2  0
 62 64  2  0
 62 65  1  0
 71 62  1  0
 65 63  1  0
 65 66  1  0
 65 70  1  6
 66 69  1  0
 67 68  1  0
 69 67  1  0
 68102  2  0
 72 71  1  0
 73 72  1  0
 72 75  1  1
 73 74  2  0
 80 73  1  0
 75 76  1  0
 76 77  1  0
 77 78  2  0
 77 79  1  0
 81 80  1  0
 82 81  1  0
 81 84  1  1
 82 83  2  0
 88 82  1  0
 84 85  1  0
 85 86  1  6
 85 87  1  0
 89 88  1  0
 90 89  1  0
 89 92  1  6
 90 91  2  0
 97 90  1  0
 92 93  1  0
 93 94  1  6
 93 95  1  0
 96 98  2  0
 99 96  1  0
 96105  1  0
 97 99  1  0
 99100  1  0
 99104  1  6
100103  1  0
102101  1  0
101103  1  0
105106  1  0
106107  1  0
106109  1  6
107108  2  0
107116  1  0
109110  1  0
110111  2  0
110112  1  0
111113  1  0
112114  2  0
113115  2  0
114115  1  0
116117  1  0
117118  1  0
117120  1  1
118119  2  0
118127  1  0
120121  1  0
121122  1  0
122123  1  0
123124  1  0
124125  1  0
124126  2  0
127128  1  0
128129  1  0
128131  1  6
129130  1  0
129132  2  0
 31133  1  0
 61134  1  0
126135  1  0
M  CHG  2  12   1  21   1
M  END
$$$$
