
     RDKit          3D

135137  0  0  0  0  0  0  0  0999 V2000
  -28.8513   -2.5112   -1.3207 C   0  0  0  0  0  0  0  0  0  0  0  0
  -28.5634   -1.5936   -2.0822 O   0  0  0  0  0  0  0  0  0  0  0  0
  -27.9406   -2.9675   -0.2138 C   0  0  0  0  0  0  0  0  0  0  0  0
  -30.0298   -3.2337   -1.3971 N   0  0  0  0  0  0  0  0  0  0  0  0
  -30.3479   -4.3027   -0.4556 C   0  0  2  0  0  0  0  0  0  0  0  0
  -29.6011   -5.6041   -0.8705 C   0  0  0  0  0  0  0  0  0  0  0  0
  -29.7150   -6.6649   -0.2602 O   0  0  0  0  0  0  0  0  0  0  0  0
  -31.8677   -4.4982   -0.2743 C   0  0  0  0  0  0  0  0  0  0  0  0
  -32.2577   -5.5627    0.7670 C   0  0  0  0  0  0  0  0  0  0  0  0
  -31.4039   -6.8267    0.5891 C   0  0  0  0  0  0  0  0  0  0  0  0
  -29.9315   -6.5509    0.2971 C   0  0  0  0  0  0  0  0  0  0  0  0
  -29.1370   -7.8002    0.3625 N   0  0  0  0  0  4  0  0  0  0  0  0
  -28.8051   -5.4683   -1.9989 N   0  0  0  0  0  0  0  0  0  0  0  0
  -28.1439   -6.6276   -2.6286 C   0  0  2  0  0  0  0  0  0  0  0  0
  -26.6280   -6.5063   -2.3040 C   0  0  0  0  0  0  0  0  0  0  0  0
  -25.8133   -7.2546   -2.8538 O   0  0  0  0  0  0  0  0  0  0  0  0
  -28.5349   -6.8736   -4.0936 C   0  0  0  0  0  0  0  0  0  0  0  0
  -30.0401   -7.1765   -4.2482 C   0  0  0  0  0  0  0  0  0  0  0  0
  -30.3925   -8.6696   -4.2462 C   0  0  0  0  0  0  0  0  0  0  0  0
  -31.8692   -8.9424   -4.4802 C   0  0  0  0  0  0  0  0  0  0  0  0
  -32.0430   -9.7197   -5.7195 N   0  0  0  0  0  4  0  0  0  0  0  0
  -26.2228   -5.4342   -1.5335 N   0  0  0  0  0  0  0  0  0  0  0  0
  -24.7838   -5.2525   -1.2559 C   0  0  2  0  0  0  0  0  0  0  0  0
  -24.3067   -5.6756    0.1517 C   0  0  0  0  0  0  0  0  0  0  0  0
  -24.5029   -4.9630    1.1358 O   0  0  0  0  0  0  0  0  0  0  0  0
  -24.3908   -3.7699   -1.4693 C   0  0  0  0  0  0  0  0  0  0  0  0
  -25.3438   -3.0075   -2.3955 C   0  0  0  0  0  0  0  0  0  0  0  0
  -25.0804   -3.2909   -3.8740 C   0  0  0  0  0  0  0  0  0  0  0  0
  -24.9583   -2.0826   -4.6782 N   0  0  0  0  0  0  0  0  0  0  0  0
  -24.6151   -2.0587   -5.9860 C   0  0  0  0  0  0  0  0  0  0  0  0
  -24.3016   -3.0666   -6.7189 N   0  0  0  0  0  0  0  0  0  0  0  0
  -24.6704   -0.8032   -6.4752 N   0  0  0  0  0  0  0  0  0  0  0  0
  -23.5917   -6.8557    0.2503 N   0  0  0  0  0  0  0  0  0  0  0  0
  -23.0023   -7.2326    1.5605 C   0  0  2  0  0  0  0  0  0  0  0  0
  -22.1193   -6.0519    2.0628 C   0  0  0  0  0  0  0  0  0  0  0  0
  -22.2754   -4.9112    1.6112 O   0  0  0  0  0  0  0  0  0  0  0  0
  -22.2765   -8.5998    1.4760 C   0  0  0  0  0  0  0  0  0  0  0  0
  -21.7797   -9.1681    2.7933 C   0  0  0  0  0  0  0  0  0  0  0  0
  -21.3282  -10.4988    2.8477 C   0  0  0  0  0  0  0  0  0  0  0  0
  -21.7537   -8.4049    3.9698 C   0  0  0  0  0  0  0  0  0  0  0  0
  -20.8254  -11.0360    4.0363 C   0  0  0  0  0  0  0  0  0  0  0  0
  -21.2389   -8.9401    5.1529 C   0  0  0  0  0  0  0  0  0  0  0  0
  -20.7768  -10.2483    5.1785 C   0  0  0  0  0  0  0  0  0  0  0  0
  -20.2805  -10.7209    6.3544 O   0  0  0  0  0  0  0  0  0  0  0  0
  -21.2683   -6.2998    3.1055 N   0  0  0  0  0  0  0  0  0  0  0  0
  -20.4610   -5.2845    3.7910 C   0  0  2  0  0  0  0  0  0  0  0  0
  -19.9863   -5.8705    5.1418 C   0  0  0  0  0  0  0  0  0  0  0  0
  -20.1294   -5.2621    6.2000 O   0  0  0  0  0  0  0  0  0  0  0  0
  -21.2974   -4.0232    4.0383 C   0  0  0  0  0  0  0  0  0  0  0  0
  -22.5479   -4.3877    4.6217 O   0  0  0  0  0  0  0  0  0  0  0  0
  -19.3871   -7.1084    5.0587 N   0  0  0  0  0  0  0  0  0  0  0  0
  -18.4393   -7.6163    6.0700 C   0  0  2  0  0  0  0  0  0  0  0  0
  -17.6733   -6.4260    6.7226 C   0  0  0  0  0  0  0  0  0  0  0  0
  -18.0057   -5.2516    6.5765 O   0  0  0  0  0  0  0  0  0  0  0  0
  -17.3821   -8.5751    5.4723 C   0  0  0  0  0  0  0  0  0  0  0  0
  -17.5871  -10.0825    5.7031 C   0  0  0  0  0  0  0  0  0  0  0  0
  -16.4217  -10.9892    5.3080 C   0  0  0  0  0  0  0  0  0  0  0  0
  -16.4152  -12.1780    6.1363 N   0  0  0  0  0  0  0  0  0  0  0  0
  -17.5347  -12.9003    6.3589 C   0  0  0  0  0  0  0  0  0  0  0  0
  -18.5591  -12.4388    5.6118 N   0  0  0  0  0  0  0  0  0  0  0  0
  -17.6135  -13.9198    7.1293 N   0  0  0  0  0  0  0  0  0  0  0  0
  -17.4587   -9.0589    7.1824 C   0  0  0  0  0  0  0  0  0  0  0  0
  -16.6790   -6.8192    7.6042 N   0  0  0  0  0  0  0  0  0  0  0  0
  -17.2515  -10.1262    6.6293 O   0  0  0  0  0  0  0  0  0  0  0  0
  -16.3621   -8.2383    7.9175 C   0  0  1  0  0  0  0  0  0  0  0  0
  -16.4804   -8.5971    9.4310 C   0  0  0  0  0  0  0  0  0  0  0  0
  -16.5326  -11.2356    9.5079 C   0  0  0  0  0  0  0  0  0  0  0  0
  -15.5703  -12.2856    9.0151 C   0  0  0  0  0  0  0  0  0  0  0  0
  -15.8147   -9.9217    9.8837 C   0  0  0  0  0  0  0  0  0  0  0  0
  -14.9756   -8.5659    7.3478 C   0  0  0  0  0  0  0  0  0  0  0  0
  -18.7527   -8.5990    7.3225 N   0  0  0  0  0  0  0  0  0  0  0  0
  -19.8801   -9.4631    6.9750 C   0  0  2  0  0  0  0  0  0  0  0  0
  -20.1158   -9.8571    5.4923 C   0  0  0  0  0  0  0  0  0  0  0  0
  -20.5492  -10.9968    5.2427 O   0  0  0  0  0  0  0  0  0  0  0  0
  -21.1681   -8.9377    7.6486 C   0  0  0  0  0  0  0  0  0  0  0  0
  -22.4570   -9.3261    6.9184 C   0  0  0  0  0  0  0  0  0  0  0  0
  -22.3613  -10.6959    6.2761 C   0  0  0  0  0  0  0  0  0  0  0  0
  -22.9011  -11.6992    6.7475 O   0  0  0  0  0  0  0  0  0  0  0  0
  -21.6082  -10.7626    5.1475 N   0  0  0  0  0  0  0  0  0  0  0  0
  -20.0769   -9.0369    4.4183 N   0  0  0  0  0  0  0  0  0  0  0  0
  -19.6783   -7.6478    4.1696 C   0  0  2  0  0  0  0  0  0  0  0  0
  -18.1421   -7.5419    4.1640 C   0  0  0  0  0  0  0  0  0  0  0  0
  -17.5169   -7.0447    5.0954 O   0  0  0  0  0  0  0  0  0  0  0  0
  -20.4099   -6.6534    5.0872 C   0  0  0  0  0  0  0  0  0  0  0  0
  -21.9290   -6.5134    4.8894 C   0  0  1  0  0  0  0  0  0  0  0  0
  -22.2751   -5.9380    3.5242 C   0  0  0  0  0  0  0  0  0  0  0  0
  -22.5844   -7.8937    5.0286 C   0  0  0  0  0  0  0  0  0  0  0  0
  -17.4972   -8.0883    3.0703 N   0  0  0  0  0  0  0  0  0  0  0  0
  -16.9283   -9.4690    3.1749 C   0  0  2  0  0  0  0  0  0  0  0  0
  -15.4949   -9.3170    3.7438 C   0  0  0  0  0  0  0  0  0  0  0  0
  -14.9787   -8.1920    3.7845 O   0  0  0  0  0  0  0  0  0  0  0  0
  -16.8351  -10.0809    1.7730 C   0  0  0  0  0  0  0  0  0  0  0  0
  -16.9057   -9.0601    0.6240 C   0  0  1  0  0  0  0  0  0  0  0  0
  -18.1951   -8.2441    0.7355 C   0  0  0  0  0  0  0  0  0  0  0  0
  -15.7009   -8.1155    0.6386 C   0  0  0  0  0  0  0  0  0  0  0  0
  -14.2816  -12.5854    3.1284 C   0  0  0  0  0  0  0  0  0  0  0  0
  -14.7089  -10.3249    4.1890 N   0  0  0  0  0  0  0  0  0  0  0  0
  -13.4794  -13.5103    3.2222 O   0  0  0  0  0  0  0  0  0  0  0  0
  -14.7914  -11.8146    4.3820 C   0  0  1  0  0  0  0  0  0  0  0  0
  -16.2210  -12.3264    4.6912 C   0  0  0  0  0  0  0  0  0  0  0  0
  -16.8207  -13.3561    7.0240 C   0  0  0  0  0  0  0  0  0  0  0  0
  -15.6825  -13.1498    7.9845 C   0  0  0  0  0  0  0  0  0  0  0  0
  -16.4053  -13.5945    5.5530 C   0  0  0  0  0  0  0  0  0  0  0  0
  -13.7698  -12.1395    5.4859 C   0  0  0  0  0  0  0  0  0  0  0  0
  -14.8032  -12.2061    1.9161 N   0  0  0  0  0  0  0  0  0  0  0  0
  -14.7970  -10.8204    1.4111 C   0  0  2  0  0  0  0  0  0  0  0  0
  -14.8515   -9.6060    2.3848 C   0  0  0  0  0  0  0  0  0  0  0  0
  -13.9346   -8.7863    2.4507 O   0  0  0  0  0  0  0  0  0  0  0  0
  -15.7043  -10.6060    0.1729 C   0  0  0  0  0  0  0  0  0  0  0  0
  -15.7775   -9.2074   -0.3907 C   0  0  0  0  0  0  0  0  0  0  0  0
  -15.0851   -8.1418    0.1972 C   0  0  0  0  0  0  0  0  0  0  0  0
  -16.5058   -8.9656   -1.5664 C   0  0  0  0  0  0  0  0  0  0  0  0
  -15.1630   -6.8564   -0.3456 C   0  0  0  0  0  0  0  0  0  0  0  0
  -16.5672   -7.6830   -2.1187 C   0  0  0  0  0  0  0  0  0  0  0  0
  -15.9047   -6.6257   -1.5017 C   0  0  0  0  0  0  0  0  0  0  0  0
  -15.9389   -9.5494    3.2446 N   0  0  0  0  0  0  0  0  0  0  0  0
  -16.5452   -8.2342    3.5174 C   0  0  2  0  0  0  0  0  0  0  0  0
  -15.6341   -7.4174    4.4662 C   0  0  0  0  0  0  0  0  0  0  0  0
  -15.1266   -7.9002    5.4732 O   0  0  0  0  0  0  0  0  0  0  0  0
  -17.9338   -8.3575    4.1706 C   0  0  0  0  0  0  0  0  0  0  0  0
  -18.1106   -9.5346    5.1345 C   0  0  0  0  0  0  0  0  0  0  0  0
  -19.5425  -10.0638    5.2353 C   0  0  0  0  0  0  0  0  0  0  0  0
  -19.5256  -11.5250    5.2093 N   0  0  0  0  0  0  0  0  0  0  0  0
  -18.9093  -12.2061    6.2050 C   0  0  0  0  0  0  0  0  0  0  0  0
  -19.4534  -13.4274    6.3776 N   0  0  0  0  0  0  0  0  0  0  0  0
  -17.9224  -11.7703    6.8932 N   0  0  0  0  0  0  0  0  0  0  0  0
  -15.3069   -6.1586    3.9867 N   0  0  0  0  0  0  0  0  0  0  0  0
  -14.4770   -6.0388    2.7890 C   0  0  2  0  0  0  0  0  0  0  0  0
  -14.9677   -4.8026    2.0368 C   0  0  0  0  0  0  0  0  0  0  0  0
  -16.2991   -4.7984    1.8303 O   0  0  0  0  0  0  0  0  0  0  0  0
  -14.6242   -7.2631    1.9075 C   0  0  0  0  0  0  0  0  0  0  0  0
  -14.2673   -3.8650    1.6758 O   0  0  0  0  0  0  0  0  0  0  0  0
  -24.2551   -3.8829   -6.1110 H   0  0  0  0  0  0  0  0  0  0  0  0
  -16.7161  -14.0700    7.5925 H   0  0  0  0  0  0  0  0  0  0  0  0
  -17.0700  -11.7773    6.3324 H   0  0  0  0  0  0  0  0  0  0  0  0
  1  2  2  0
  1  3  1  0
  4  1  1  0
  5  4  1  0
  6  5  1  0
  5  8  1  6
  6  7  2  0
 13  6  1  0
  8  9  1  0
  9 10  1  0
 10 11  1  0
 11 12  1  0
 14 13  1  0
 15 14  1  0
 14 17  1  6
 15 16  2  0
 22 15  1  0
 17 18  1  0
 18 19  1  0
 19 20  1  0
 20 21  1  0
 23 22  1  0
 24 23  1  0
 23 26  1  1
 24 25  2  0
 33 24  1  0
 26 27  1  0
 27 28  1  0
 28 29  1  0
 29 30  1  0
 30 31  2  0
 30 32  1  0
 34 33  1  0
 35 34  1  0
 34 37  1  6
 35 36  2  0
 45 35  1  0
 37 38  1  0
 38 39  2  0
 38 40  1  0
 39 41  1  0
 40 42  2  0
 41 43  2  0
 42 43  1  0
 43 44  1  0
 46 45  1  0
 47 46  1  0
 46 49  1  1
 47 48  2  0
 51 47  1  0
 49 50  1  0
 52 51  1  0
 53 52  1  0
 52 55  1  6
 53 54  2  0
 63 53  1  0
 55 56  1  0
 56 57  1  0
 57 58  1  0
 58 59  1  0
 59 60  1  0
 59 61  2  0
 62 64  2  0
 62 65  1  0
 71 62  1  0
 65 63  1  0
 65 66  1  0
 65 70  1  6
 66 69  1  0
 67 68  1  0
 69 67  1  0
 68102  2  0
 72 71  1  0
 73 72  1  0
 72 75  1  6
 73 74  2  0
 80 73  1  0
 75 76  1  0
 76 77  1  0
 77 78  2  0
 77 79  1  0
 81 80  1  0
 82 81  1  0
 81 84  1  1
 82 83  2  0
 88 82  1  0
 84 85  1  0
 85 86  1  6
 85 87  1  0
 89 88  1  0
 90 89  1  0
 89 92  1  6
 90 91  2  0
 97 90  1  0
 92 93  1  0
 93 94  1  1
 93 95  1  0
 96 98  2  0
 99 96  1  0
 96105  1  0
 97 99  1  0
 99100  1  0
 99104  1  1
100103  1  0
102101  1  0
101103  1  0
105106  1  0
106107  1  0
106109  1  6
107108  2  0
107116  1  0
109110  1  0
110111  2  0
110112  1  0
111113  1  0
112114  2  0
113115  2  0
114115  1  0
116117  1  0
117118  1  0
117120  1  1
118119  2  0
118127  1  0
120121  1  0
121122  1  0
122123  1  0
123124  1  0
124125  1  0
124126  2  0
127128  1  0
128129  1  0
128131  1  6
129130  1  0
129132  2  0
 31133  1  0
 61134  1  0
126135  1  0
M  CHG  2  12   1  21   1
M  END
$$$$
