
     RDKit          3D

135137  0  0  0  0  0  0  0  0999 V2000
  -31.0026   -6.0486   -8.4005 C   0  0  0  0  0  0  0  0  0  0  0  0
  -31.1405   -7.2668   -8.4421 O   0  0  0  0  0  0  0  0  0  0  0  0
  -30.2479   -5.2779   -9.4491 C   0  0  0  0  0  0  0  0  0  0  0  0
  -31.5096   -5.2507   -7.3892 N   0  0  0  0  0  0  0  0  0  0  0  0
  -30.9128   -3.9648   -7.0414 C   0  0  2  0  0  0  0  0  0  0  0  0
  -30.1509   -4.0906   -5.6897 C   0  0  0  0  0  0  0  0  0  0  0  0
  -29.1009   -3.4962   -5.4551 O   0  0  0  0  0  0  0  0  0  0  0  0
  -31.9382   -2.8119   -7.0632 C   0  0  0  0  0  0  0  0  0  0  0  0
  -31.3191   -1.4026   -7.0489 C   0  0  0  0  0  0  0  0  0  0  0  0
  -29.8395   -1.4696   -6.6432 C   0  0  0  0  0  0  0  0  0  0  0  0
  -29.1575   -0.1082   -6.5380 C   0  0  0  0  0  0  0  0  0  0  0  0
  -28.7477    0.3819   -7.8753 N   0  0  0  0  0  4  0  0  0  0  0  0
  -30.7664   -4.9217   -4.7647 N   0  0  0  0  0  0  0  0  0  0  0  0
  -30.2015   -5.1414   -3.4192 C   0  0  2  0  0  0  0  0  0  0  0  0
  -28.6801   -5.3989   -3.6115 C   0  0  0  0  0  0  0  0  0  0  0  0
  -28.2295   -5.6492   -4.7341 O   0  0  0  0  0  0  0  0  0  0  0  0
  -30.9819   -6.1378   -2.5488 C   0  0  0  0  0  0  0  0  0  0  0  0
  -30.5788   -6.0475   -1.0619 C   0  0  0  0  0  0  0  0  0  0  0  0
  -29.6755   -7.1886   -0.5768 C   0  0  0  0  0  0  0  0  0  0  0  0
  -29.1574   -6.9894    0.8381 C   0  0  0  0  0  0  0  0  0  0  0  0
  -29.0602   -8.2906    1.5219 N   0  0  0  0  0  4  0  0  0  0  0  0
  -27.8501   -5.1623   -2.5333 N   0  0  0  0  0  0  0  0  0  0  0  0
  -26.6037   -4.3980   -2.7405 C   0  0  2  0  0  0  0  0  0  0  0  0
  -25.9979   -3.7359   -1.4825 C   0  0  0  0  0  0  0  0  0  0  0  0
  -26.6277   -2.9034   -0.8304 O   0  0  0  0  0  0  0  0  0  0  0  0
  -26.8355   -3.2921   -3.7994 C   0  0  0  0  0  0  0  0  0  0  0  0
  -25.8939   -2.0924   -3.6531 C   0  0  0  0  0  0  0  0  0  0  0  0
  -24.6838   -2.1768   -4.5827 C   0  0  0  0  0  0  0  0  0  0  0  0
  -23.8148   -1.0106   -4.5027 N   0  0  0  0  0  0  0  0  0  0  0  0
  -22.4674   -1.0592   -4.3984 C   0  0  0  0  0  0  0  0  0  0  0  0
  -21.6649   -1.7703   -5.1066 N   0  0  0  0  0  0  0  0  0  0  0  0
  -22.0278   -0.2139   -3.4440 N   0  0  0  0  0  0  0  0  0  0  0  0
  -24.6947   -4.0667   -1.1574 N   0  0  0  0  0  0  0  0  0  0  0  0
  -24.4522   -5.0826   -0.1013 C   0  0  2  0  0  0  0  0  0  0  0  0
  -23.0602   -5.7343   -0.3533 C   0  0  0  0  0  0  0  0  0  0  0  0
  -22.8787   -6.4784   -1.3243 O   0  0  0  0  0  0  0  0  0  0  0  0
  -25.6326   -6.0828   -0.0042 C   0  0  0  0  0  0  0  0  0  0  0  0
  -25.5953   -7.0385    1.1749 C   0  0  0  0  0  0  0  0  0  0  0  0
  -24.3751   -7.6282    1.5506 C   0  0  0  0  0  0  0  0  0  0  0  0
  -26.7460   -7.3566    1.9110 C   0  0  0  0  0  0  0  0  0  0  0  0
  -24.3020   -8.4784    2.6578 C   0  0  0  0  0  0  0  0  0  0  0  0
  -26.6677   -8.1962    3.0246 C   0  0  0  0  0  0  0  0  0  0  0  0
  -25.4490   -8.7489    3.3919 C   0  0  0  0  0  0  0  0  0  0  0  0
  -25.4250   -9.5564    4.4872 O   0  0  0  0  0  0  0  0  0  0  0  0
  -22.0270   -5.3481    0.4567 N   0  0  0  0  0  0  0  0  0  0  0  0
  -20.6106   -5.6391    0.2087 C   0  0  2  0  0  0  0  0  0  0  0  0
  -20.1935   -6.8283    1.1061 C   0  0  0  0  0  0  0  0  0  0  0  0
  -21.0222   -7.5254    1.6874 O   0  0  0  0  0  0  0  0  0  0  0  0
  -19.7531   -4.4122    0.5422 C   0  0  0  0  0  0  0  0  0  0  0  0
  -20.1309   -3.9000    1.8196 O   0  0  0  0  0  0  0  0  0  0  0  0
  -18.8344   -7.0300    1.2073 N   0  0  0  0  0  0  0  0  0  0  0  0
  -18.2330   -8.0529    2.0855 C   0  0  2  0  0  0  0  0  0  0  0  0
  -17.3431   -7.3666    3.1655 C   0  0  0  0  0  0  0  0  0  0  0  0
  -16.4210   -7.9408    3.7409 O   0  0  0  0  0  0  0  0  0  0  0  0
  -17.3378   -9.0527    1.3151 C   0  0  0  0  0  0  0  0  0  0  0  0
  -17.7079  -10.5435    1.4041 C   0  0  0  0  0  0  0  0  0  0  0  0
  -16.5506  -11.5116    1.6483 C   0  0  0  0  0  0  0  0  0  0  0  0
  -16.9996  -12.6278    2.4557 N   0  0  0  0  0  0  0  0  0  0  0  0
  -16.4784  -12.8833    3.6753 C   0  0  0  0  0  0  0  0  0  0  0  0
  -16.7713  -14.1407    4.0677 N   0  0  0  0  0  0  0  0  0  0  0  0
  -15.7570  -12.0719    4.3538 N   0  0  0  0  0  0  0  0  0  0  0  0
  -18.4543   -5.8162    5.5454 C   0  0  0  0  0  0  0  0  0  0  0  0
  -17.5853   -6.0095    3.3072 N   0  0  0  0  0  0  0  0  0  0  0  0
  -18.2634   -6.0028    6.7357 O   0  0  0  0  0  0  0  0  0  0  0  0
  -17.3771   -5.2579    4.5737 C   0  0  1  0  0  0  0  0  0  0  0  0
  -17.6404   -3.7249    4.4541 C   0  0  0  0  0  0  0  0  0  0  0  0
  -17.8497   -2.8691    6.9429 C   0  0  0  0  0  0  0  0  0  0  0  0
  -16.9115   -2.9310    8.1208 C   0  0  0  0  0  0  0  0  0  0  0  0
  -17.0913   -2.8356    5.5987 C   0  0  0  0  0  0  0  0  0  0  0  0
  -15.9692   -5.5677    5.0993 C   0  0  0  0  0  0  0  0  0  0  0  0
  -19.7270   -5.9448    5.0266 N   0  0  0  0  0  0  0  0  0  0  0  0
  -20.8693   -6.1251    5.9216 C   0  0  2  0  0  0  0  0  0  0  0  0
  -21.0037   -7.4380    6.7385 C   0  0  0  0  0  0  0  0  0  0  0  0
  -21.4795   -7.3763    7.8870 O   0  0  0  0  0  0  0  0  0  0  0  0
  -22.1764   -5.7661    5.1791 C   0  0  0  0  0  0  0  0  0  0  0  0
  -23.3444   -6.7096    5.4806 C   0  0  0  0  0  0  0  0  0  0  0  0
  -22.9827   -7.7572    6.5149 C   0  0  0  0  0  0  0  0  0  0  0  0
  -22.8134   -7.4946    7.7076 O   0  0  0  0  0  0  0  0  0  0  0  0
  -22.8230   -9.0195    6.0392 N   0  0  0  0  0  0  0  0  0  0  0  0
  -20.8293   -8.6989    6.2833 N   0  0  0  0  0  0  0  0  0  0  0  0
  -20.3327   -9.3116    5.0471 C   0  0  2  0  0  0  0  0  0  0  0  0
  -18.7978   -9.2009    4.9933 C   0  0  0  0  0  0  0  0  0  0  0  0
  -18.2244   -8.4048    4.2563 O   0  0  0  0  0  0  0  0  0  0  0  0
  -21.0796   -8.8075    3.8004 C   0  0  0  0  0  0  0  0  0  0  0  0
  -22.3622   -7.9927    4.0406 C   0  0  1  0  0  0  0  0  0  0  0  0
  -22.7448   -7.1613    2.8253 C   0  0  0  0  0  0  0  0  0  0  0  0
  -23.5137   -8.9516    4.3703 C   0  0  0  0  0  0  0  0  0  0  0  0
  -18.0970  -10.0143    5.8639 N   0  0  0  0  0  0  0  0  0  0  0  0
  -17.6185   -9.4480    7.1645 C   0  0  2  0  0  0  0  0  0  0  0  0
  -16.2308   -8.8154    6.8900 C   0  0  0  0  0  0  0  0  0  0  0  0
  -15.6562   -9.0632    5.8212 O   0  0  0  0  0  0  0  0  0  0  0  0
  -17.4450  -10.5875    8.1743 C   0  0  0  0  0  0  0  0  0  0  0  0
  -16.6456  -11.7920    7.6478 C   0  0  1  0  0  0  0  0  0  0  0  0
  -15.9041  -11.4012    6.3679 C   0  0  0  0  0  0  0  0  0  0  0  0
  -15.6402  -12.2951    8.6870 C   0  0  0  0  0  0  0  0  0  0  0  0
  -15.1597   -8.3073   10.2258 C   0  0  0  0  0  0  0  0  0  0  0  0
  -15.5432   -8.0162    7.7387 N   0  0  0  0  0  0  0  0  0  0  0  0
  -14.6111   -7.8379   11.2190 O   0  0  0  0  0  0  0  0  0  0  0  0
  -15.7265   -7.3961    9.0971 C   0  0  1  0  0  0  0  0  0  0  0  0
  -17.2037   -7.0871    9.4487 C   0  0  0  0  0  0  0  0  0  0  0  0
  -18.0521   -4.6221    9.7060 C   0  0  0  0  0  0  0  0  0  0  0  0
  -16.9874   -3.6624    9.2526 C   0  0  0  0  0  0  0  0  0  0  0  0
  -17.5309   -5.9078   10.3906 C   0  0  0  0  0  0  0  0  0  0  0  0
  -14.8199   -6.1527    9.1029 C   0  0  0  0  0  0  0  0  0  0  0  0
  -15.3385   -9.6605   10.0751 N   0  0  0  0  0  0  0  0  0  0  0  0
  -15.9159  -10.2885    8.8719 C   0  0  2  0  0  0  0  0  0  0  0  0
  -15.2164  -11.4932    8.1754 C   0  0  0  0  0  0  0  0  0  0  0  0
  -14.4955  -12.2732    8.7989 O   0  0  0  0  0  0  0  0  0  0  0  0
  -16.4666   -9.2693    7.8423 C   0  0  0  0  0  0  0  0  0  0  0  0
  -17.8502   -9.5253    7.2955 C   0  0  0  0  0  0  0  0  0  0  0  0
  -18.8665  -10.0653    8.0932 C   0  0  0  0  0  0  0  0  0  0  0  0
  -18.1569   -9.1633    5.9741 C   0  0  0  0  0  0  0  0  0  0  0  0
  -20.1419  -10.2881    7.5669 C   0  0  0  0  0  0  0  0  0  0  0  0
  -19.4384   -9.3694    5.4551 C   0  0  0  0  0  0  0  0  0  0  0  0
  -20.4281   -9.9424    6.2484 C   0  0  0  0  0  0  0  0  0  0  0  0
  -15.3660  -11.5855    6.7992 N   0  0  0  0  0  0  0  0  0  0  0  0
  -14.5627  -12.5869    6.0753 C   0  0  2  0  0  0  0  0  0  0  0  0
  -13.2973  -11.9215    5.4808 C   0  0  0  0  0  0  0  0  0  0  0  0
  -12.1623  -12.2346    5.8249 O   0  0  0  0  0  0  0  0  0  0  0  0
  -15.3482  -13.2423    4.9250 C   0  0  0  0  0  0  0  0  0  0  0  0
  -14.8170  -14.5972    4.4474 C   0  0  0  0  0  0  0  0  0  0  0  0
  -15.6502  -15.2536    3.3449 C   0  0  0  0  0  0  0  0  0  0  0  0
  -14.8232  -16.2104    2.6124 N   0  0  0  0  0  0  0  0  0  0  0  0
  -15.1956  -16.6060    1.3715 C   0  0  0  0  0  0  0  0  0  0  0  0
  -15.2839  -15.5599    0.5258 N   0  0  0  0  0  0  0  0  0  0  0  0
  -15.4209  -17.8162    1.0218 N   0  0  0  0  0  0  0  0  0  0  0  0
  -13.5549  -11.0761    4.4129 N   0  0  0  0  0  0  0  0  0  0  0  0
  -12.5388  -10.8957    3.3773 C   0  0  2  0  0  0  0  0  0  0  0  0
  -13.2180  -11.1885    2.0402 C   0  0  0  0  0  0  0  0  0  0  0  0
  -12.8210  -10.3658    1.0498 O   0  0  0  0  0  0  0  0  0  0  0  0
  -11.3841  -11.8560    3.5831 C   0  0  0  0  0  0  0  0  0  0  0  0
  -14.0155  -12.0939    1.8307 O   0  0  0  0  0  0  0  0  0  0  0  0
  -22.1132   -1.9301   -6.0075 H   0  0  0  0  0  0  0  0  0  0  0  0
  -15.8243  -11.1354    3.9527 H   0  0  0  0  0  0  0  0  0  0  0  0
  -15.8767  -18.3242    1.7803 H   0  0  0  0  0  0  0  0  0  0  0  0
  1  2  2  0
  1  3  1  0
  4  1  1  0
  5  4  1  0
  6  5  1  0
  5  8  1  1
  6  7  2  0
 13  6  1  0
  8  9  1  0
  9 10  1  0
 10 11  1  0
 11 12  1  0
 14 13  1  0
 15 14  1  0
 14 17  1  6
 15 16  2  0
 22 15  1  0
 17 18  1  0
 18 19  1  0
 19 20  1  0
 20 21  1  0
 23 22  1  0
 24 23  1  0
 23 26  1  6
 24 25  2  0
 33 24  1  0
 26 27  1  0
 27 28  1  0
 28 29  1  0
 29 30  1  0
 30 31  2  0
 30 32  1  0
 34 33  1  0
 35 34  1  0
 34 37  1  6
 35 36  2  0
 45 35  1  0
 37 38  1  0
 38 39  2  0
 38 40  1  0
 39 41  1  0
 40 42  2  0
 41 43  2  0
 42 43  1  0
 43 44  1  0
 46 45  1  0
 47 46  1  0
 46 49  1  1
 47 48  2  0
 51 47  1  0
 49 50  1  0
 52 51  1  0
 53 52  1  0
 52 55  1  6
 53 54  2  0
 63 53  1  0
 55 56  1  0
 56 57  1  0
 57 58  1  0
 58 59  1  0
 59 60  1  0
 59 61  2  0
 62 64  2  0
 62 65  1  0
 71 62  1  0
 65 63  1  0
 65 66  1  0
 65 70  1  1
 66 69  1  0
 67 68  1  0
 69 67  1  0
 68102  2  0
 72 71  1  0
 73 72  1  0
 72 75  1  6
 73 74  2  0
 80 73  1  0
 75 76  1  0
 76 77  1  0
 77 78  2  0
 77 79  1  0
 81 80  1  0
 82 81  1  0
 81 84  1  6
 82 83  2  0
 88 82  1  0
 84 85  1  0
 85 86  1  6
 85 87  1  0
 89 88  1  0
 90 89  1  0
 89 92  1  1
 90 91  2  0
 97 90  1  0
 92 93  1  0
 93 94  1  6
 93 95  1  0
 96 98  2  0
 99 96  1  0
 96105  1  0
 97 99  1  0
 99100  1  0
 99104  1  6
100103  1  0
102101  1  0
101103  1  0
105106  1  0
106107  1  0
106109  1  6
107108  2  0
107116  1  0
109110  1  0
110111  2  0
110112  1  0
111113  1  0
112114  2  0
113115  2  0
114115  1  0
116117  1  0
117118  1  0
117120  1  6
118119  2  0
118127  1  0
120121  1  0
121122  1  0
122123  1  0
123124  1  0
124125  1  0
124126  2  0
127128  1  0
128129  1  0
128131  1  1
129130  1  0
129132  2  0
 31133  1  0
 61134  1  0
126135  1  0
M  CHG  2  12   1  21   1
M  END
$$$$
