
     RDKit          3D

135137  0  0  0  0  0  0  0  0999 V2000
  -33.2543   -3.0750   -3.3216 C   0  0  0  0  0  0  0  0  0  0  0  0
  -33.4639   -4.2796   -3.2225 O   0  0  0  0  0  0  0  0  0  0  0  0
  -34.2794   -2.0368   -2.9552 C   0  0  0  0  0  0  0  0  0  0  0  0
  -32.0675   -2.5361   -3.7880 N   0  0  0  0  0  0  0  0  0  0  0  0
  -30.8436   -3.3249   -3.8905 C   0  0  2  0  0  0  0  0  0  0  0  0
  -30.6421   -4.1490   -2.5852 C   0  0  0  0  0  0  0  0  0  0  0  0
  -31.1223   -3.8175   -1.5033 O   0  0  0  0  0  0  0  0  0  0  0  0
  -29.6180   -2.4681   -4.2709 C   0  0  0  0  0  0  0  0  0  0  0  0
  -29.8151   -1.5838   -5.5155 C   0  0  0  0  0  0  0  0  0  0  0  0
  -28.4913   -1.4257   -6.2774 C   0  0  0  0  0  0  0  0  0  0  0  0
  -28.6164   -0.6725   -7.5990 C   0  0  0  0  0  0  0  0  0  0  0  0
  -27.3284   -0.6745   -8.3321 N   0  0  0  0  0  4  0  0  0  0  0  0
  -29.8846   -5.2998   -2.7499 N   0  0  0  0  0  0  0  0  0  0  0  0
  -29.3589   -6.0567   -1.5974 C   0  0  2  0  0  0  0  0  0  0  0  0
  -27.8828   -6.4119   -1.9338 C   0  0  0  0  0  0  0  0  0  0  0  0
  -27.4095   -6.1196   -3.0367 O   0  0  0  0  0  0  0  0  0  0  0  0
  -30.2656   -7.1962   -1.1086 C   0  0  0  0  0  0  0  0  0  0  0  0
  -30.8325   -8.0276   -2.2785 C   0  0  0  0  0  0  0  0  0  0  0  0
  -31.7070   -9.2136   -1.8516 C   0  0  0  0  0  0  0  0  0  0  0  0
  -31.9811  -10.1981   -2.9764 C   0  0  0  0  0  0  0  0  0  0  0  0
  -32.8317  -11.2952   -2.4834 N   0  0  0  0  0  4  0  0  0  0  0  0
  -27.0910   -6.8916   -0.9090 N   0  0  0  0  0  0  0  0  0  0  0  0
  -25.6643   -6.5127   -0.8661 C   0  0  2  0  0  0  0  0  0  0  0  0
  -24.8571   -7.0481    0.3379 C   0  0  0  0  0  0  0  0  0  0  0  0
  -25.4184   -7.4840    1.3428 O   0  0  0  0  0  0  0  0  0  0  0  0
  -25.5297   -4.9701   -0.8852 C   0  0  0  0  0  0  0  0  0  0  0  0
  -24.4667   -4.4568   -1.8618 C   0  0  0  0  0  0  0  0  0  0  0  0
  -24.7101   -3.0102   -2.2903 C   0  0  0  0  0  0  0  0  0  0  0  0
  -26.0353   -2.5207   -1.9360 N   0  0  0  0  0  0  0  0  0  0  0  0
  -26.8700   -1.8750   -2.7817 C   0  0  0  0  0  0  0  0  0  0  0  0
  -26.5462   -1.2529   -3.8584 N   0  0  0  0  0  0  0  0  0  0  0  0
  -28.1501   -1.9854   -2.3721 N   0  0  0  0  0  0  0  0  0  0  0  0
  -23.4786   -6.9558    0.2680 N   0  0  0  0  0  0  0  0  0  0  0  0
  -22.6625   -7.5236    1.3716 C   0  0  2  0  0  0  0  0  0  0  0  0
  -21.1575   -7.3813    0.9965 C   0  0  0  0  0  0  0  0  0  0  0  0
  -20.6519   -8.1066    0.1317 O   0  0  0  0  0  0  0  0  0  0  0  0
  -23.1148   -8.9652    1.7186 C   0  0  0  0  0  0  0  0  0  0  0  0
  -24.6129   -9.1766    1.8449 C   0  0  0  0  0  0  0  0  0  0  0  0
  -25.4207   -8.1354    2.3359 C   0  0  0  0  0  0  0  0  0  0  0  0
  -25.2263  -10.3854    1.4849 C   0  0  0  0  0  0  0  0  0  0  0  0
  -26.8078   -8.2860    2.4232 C   0  0  0  0  0  0  0  0  0  0  0  0
  -26.6137  -10.5288    1.5611 C   0  0  0  0  0  0  0  0  0  0  0  0
  -27.3944   -9.4801    2.0263 C   0  0  0  0  0  0  0  0  0  0  0  0
  -28.7415   -9.6683    2.0768 O   0  0  0  0  0  0  0  0  0  0  0  0
  -20.4622   -6.3459    1.5596 N   0  0  0  0  0  0  0  0  0  0  0  0
  -19.1584   -6.4701    2.2206 C   0  0  2  0  0  0  0  0  0  0  0  0
  -19.2963   -5.9500    3.6711 C   0  0  0  0  0  0  0  0  0  0  0  0
  -20.3886   -5.6693    4.1595 O   0  0  0  0  0  0  0  0  0  0  0  0
  -18.1057   -5.6440    1.4715 C   0  0  0  0  0  0  0  0  0  0  0  0
  -16.9115   -5.5756    2.2499 O   0  0  0  0  0  0  0  0  0  0  0  0
  -18.1079   -5.8181    4.3555 N   0  0  0  0  0  0  0  0  0  0  0  0
  -18.0328   -5.4066    5.7713 C   0  0  2  0  0  0  0  0  0  0  0  0
  -18.0521   -3.8514    5.8723 C   0  0  0  0  0  0  0  0  0  0  0  0
  -18.5863   -3.2443    6.7981 O   0  0  0  0  0  0  0  0  0  0  0  0
  -16.7439   -5.9000    6.4711 C   0  0  0  0  0  0  0  0  0  0  0  0
  -16.0602   -4.9322    7.4527 C   0  0  0  0  0  0  0  0  0  0  0  0
  -16.1539   -5.2975    8.9340 C   0  0  0  0  0  0  0  0  0  0  0  0
  -17.4822   -5.0060    9.4337 N   0  0  0  0  0  0  0  0  0  0  0  0
  -18.1523   -5.8684   10.2285 C   0  0  0  0  0  0  0  0  0  0  0  0
  -18.7090   -6.8580    9.4997 N   0  0  0  0  0  0  0  0  0  0  0  0
  -18.2134   -5.7991   11.5055 N   0  0  0  0  0  0  0  0  0  0  0  0
  -15.9794   -5.2464    4.9046 C   0  0  0  0  0  0  0  0  0  0  0  0
  -17.2823   -3.2204    4.9080 N   0  0  0  0  0  0  0  0  0  0  0  0
  -15.6785   -6.2672    4.3084 O   0  0  0  0  0  0  0  0  0  0  0  0
  -16.1264   -3.8575    4.2222 C   0  0  1  0  0  0  0  0  0  0  0  0
  -14.7717   -3.1138    4.4354 C   0  0  0  0  0  0  0  0  0  0  0  0
  -12.9175   -4.8410    3.6946 C   0  0  0  0  0  0  0  0  0  0  0  0
  -12.6689   -5.5720    2.4002 C   0  0  0  0  0  0  0  0  0  0  0  0
  -13.6179   -3.4839    3.4689 C   0  0  0  0  0  0  0  0  0  0  0  0
  -16.4717   -4.0243    2.7365 C   0  0  0  0  0  0  0  0  0  0  0  0
  -16.0457   -5.2519    6.2834 N   0  0  0  0  0  0  0  0  0  0  0  0
  -15.5847   -6.4182    7.0354 C   0  0  2  0  0  0  0  0  0  0  0  0
  -16.3660   -7.7554    6.9317 C   0  0  0  0  0  0  0  0  0  0  0  0
  -15.7242   -8.8214    6.9596 O   0  0  0  0  0  0  0  0  0  0  0  0
  -15.3093   -6.0182    8.5027 C   0  0  0  0  0  0  0  0  0  0  0  0
  -15.1814   -7.2068    9.4598 C   0  0  0  0  0  0  0  0  0  0  0  0
  -15.8790   -8.4450    8.9323 C   0  0  0  0  0  0  0  0  0  0  0  0
  -15.5063   -9.5906    9.1952 O   0  0  0  0  0  0  0  0  0  0  0  0
  -16.9391   -8.2167    8.1142 N   0  0  0  0  0  0  0  0  0  0  0  0
  -17.7064   -7.9194    6.9945 N   0  0  0  0  0  0  0  0  0  0  0  0
  -18.8751   -7.0338    7.0058 C   0  0  2  0  0  0  0  0  0  0  0  0
  -19.1227   -6.4834    5.5891 C   0  0  0  0  0  0  0  0  0  0  0  0
  -18.8548   -5.3265    5.2803 O   0  0  0  0  0  0  0  0  0  0  0  0
  -18.8035   -5.9809    8.1249 C   0  0  0  0  0  0  0  0  0  0  0  0
  -17.6975   -4.9180    8.0096 C   0  0  1  0  0  0  0  0  0  0  0  0
  -16.3077   -5.5290    8.1078 C   0  0  0  0  0  0  0  0  0  0  0  0
  -17.8302   -4.1972    6.6616 C   0  0  0  0  0  0  0  0  0  0  0  0
  -19.6166   -7.3831    4.6632 N   0  0  0  0  0  0  0  0  0  0  0  0
  -18.6662   -8.0559    3.7224 C   0  0  2  0  0  0  0  0  0  0  0  0
  -18.5170   -7.1198    2.4966 C   0  0  0  0  0  0  0  0  0  0  0  0
  -19.3096   -6.1784    2.3572 O   0  0  0  0  0  0  0  0  0  0  0  0
  -19.2775   -9.3807    3.2539 C   0  0  0  0  0  0  0  0  0  0  0  0
  -18.2497  -10.4479    2.8395 C   0  0  1  0  0  0  0  0  0  0  0  0
  -17.9719  -10.3433    1.3386 C   0  0  0  0  0  0  0  0  0  0  0  0
  -16.9378  -10.2931    3.6135 C   0  0  0  0  0  0  0  0  0  0  0  0
  -16.8782   -9.3364    0.2753 C   0  0  0  0  0  0  0  0  0  0  0  0
  -17.5972   -7.2455    1.5117 N   0  0  0  0  0  0  0  0  0  0  0  0
  -16.8392   -9.2796   -0.9506 O   0  0  0  0  0  0  0  0  0  0  0  0
  -16.4359   -8.1366    1.1642 C   0  0  1  0  0  0  0  0  0  0  0  0
  -15.7043   -8.7197    2.3996 C   0  0  0  0  0  0  0  0  0  0  0  0
  -13.2459   -8.0232    2.9769 C   0  0  0  0  0  0  0  0  0  0  0  0
  -12.8166   -6.8796    2.1003 C   0  0  0  0  0  0  0  0  0  0  0  0
  -14.1971   -9.0437    2.3084 C   0  0  0  0  0  0  0  0  0  0  0  0
  -15.5287   -7.2878    0.2563 C   0  0  0  0  0  0  0  0  0  0  0  0
  -17.2769  -10.4758    0.9300 N   0  0  0  0  0  0  0  0  0  0  0  0
  -17.4581  -10.5688    2.3908 C   0  0  2  0  0  0  0  0  0  0  0  0
  -16.9899  -11.8246    3.1841 C   0  0  0  0  0  0  0  0  0  0  0  0
  -17.4154  -12.0743    4.3126 O   0  0  0  0  0  0  0  0  0  0  0  0
  -18.8389  -10.0617    2.8792 C   0  0  0  0  0  0  0  0  0  0  0  0
  -20.0518  -10.8495    2.4467 C   0  0  0  0  0  0  0  0  0  0  0  0
  -21.3503  -10.4283    2.7585 C   0  0  0  0  0  0  0  0  0  0  0  0
  -19.8921  -12.0027    1.6619 C   0  0  0  0  0  0  0  0  0  0  0  0
  -22.4587  -11.1708    2.3423 C   0  0  0  0  0  0  0  0  0  0  0  0
  -21.0026  -12.7338    1.2305 C   0  0  0  0  0  0  0  0  0  0  0  0
  -22.2860  -12.3239    1.5803 C   0  0  0  0  0  0  0  0  0  0  0  0
  -15.9954  -12.5934    2.5968 N   0  0  0  0  0  0  0  0  0  0  0  0
  -15.3245  -13.6147    3.4206 C   0  0  2  0  0  0  0  0  0  0  0  0
  -16.1930  -13.9520    4.6573 C   0  0  0  0  0  0  0  0  0  0  0  0
  -17.3434  -13.5467    4.7875 O   0  0  0  0  0  0  0  0  0  0  0  0
  -13.9430  -13.1487    3.9145 C   0  0  0  0  0  0  0  0  0  0  0  0
  -13.4363  -11.8312    3.3199 C   0  0  0  0  0  0  0  0  0  0  0  0
  -12.0748  -11.9280    2.6288 C   0  0  0  0  0  0  0  0  0  0  0  0
  -11.6883  -10.6115    2.1256 N   0  0  0  0  0  0  0  0  0  0  0  0
  -11.9180  -10.2958    0.8284 C   0  0  0  0  0  0  0  0  0  0  0  0
  -11.5600   -9.0243    0.5592 N   0  0  0  0  0  0  0  0  0  0  0  0
  -12.3959  -11.0946   -0.0497 N   0  0  0  0  0  0  0  0  0  0  0  0
  -15.6216  -14.8846    5.5088 N   0  0  0  0  0  0  0  0  0  0  0  0
  -16.1387  -15.0283    6.8688 C   0  0  2  0  0  0  0  0  0  0  0  0
  -16.0530  -13.6483    7.5192 C   0  0  0  0  0  0  0  0  0  0  0  0
  -16.7326  -12.6993    6.8462 O   0  0  0  0  0  0  0  0  0  0  0  0
  -15.3052  -16.0169    7.6598 C   0  0  0  0  0  0  0  0  0  0  0  0
  -15.4739  -13.3905    8.5670 O   0  0  0  0  0  0  0  0  0  0  0  0
  -25.6736   -1.6581   -4.1940 H   0  0  0  0  0  0  0  0  0  0  0  0
  -17.8198   -4.9111   11.8201 H   0  0  0  0  0  0  0  0  0  0  0  0
  -12.6956  -11.9651    0.3903 H   0  0  0  0  0  0  0  0  0  0  0  0
  1  2  2  0
  1  3  1  0
  4  1  1  0
  5  4  1  0
  6  5  1  0
  5  8  1  1
  6  7  2  0
 13  6  1  0
  8  9  1  0
  9 10  1  0
 10 11  1  0
 11 12  1  0
 14 13  1  0
 15 14  1  0
 14 17  1  6
 15 16  2  0
 22 15  1  0
 17 18  1  0
 18 19  1  0
 19 20  1  0
 20 21  1  0
 23 22  1  0
 24 23  1  0
 23 26  1  1
 24 25  2  0
 33 24  1  0
 26 27  1  0
 27 28  1  0
 28 29  1  0
 29 30  1  0
 30 31  2  0
 30 32  1  0
 34 33  1  0
 35 34  1  0
 34 37  1  6
 35 36  2  0
 45 35  1  0
 37 38  1  0
 38 39  2  0
 38 40  1  0
 39 41  1  0
 40 42  2  0
 41 43  2  0
 42 43  1  0
 43 44  1  0
 46 45  1  0
 47 46  1  0
 46 49  1  6
 47 48  2  0
 51 47  1  0
 49 50  1  0
 52 51  1  0
 53 52  1  0
 52 55  1  6
 53 54  2  0
 63 53  1  0
 55 56  1  0
 56 57  1  0
 57 58  1  0
 58 59  1  0
 59 60  1  0
 59 61  2  0
 62 64  2  0
 62 65  1  0
 71 62  1  0
 65 63  1  0
 65 66  1  0
 65 70  1  6
 66 69  1  0
 67 68  1  0
 69 67  1  0
 68102  2  0
 72 71  1  0
 73 72  1  0
 72 75  1  1
 73 74  2  0
 80 73  1  0
 75 76  1  0
 76 77  1  0
 77 78  2  0
 77 79  1  0
 81 80  1  0
 82 81  1  0
 81 84  1  1
 82 83  2  0
 88 82  1  0
 84 85  1  0
 85 86  1  6
 85 87  1  0
 89 88  1  0
 90 89  1  0
 89 92  1  6
 90 91  2  0
 97 90  1  0
 92 93  1  0
 93 94  1  6
 93 95  1  0
 96 98  2  0
 99 96  1  0
 96105  1  0
 97 99  1  0
 99100  1  0
 99104  1  6
100103  1  0
102101  1  0
101103  1  0
105106  1  0
106107  1  0
106109  1  6
107108  2  0
107116  1  0
109110  1  0
110111  2  0
110112  1  0
111113  1  0
112114  2  0
113115  2  0
114115  1  0
116117  1  0
117118  1  0
117120  1  1
118119  2  0
118127  1  0
120121  1  0
121122  1  0
122123  1  0
123124  1  0
124125  1  0
124126  2  0
127128  1  0
128129  1  0
128131  1  1
129130  1  0
129132  2  0
 31133  1  0
 61134  1  0
126135  1  0
M  CHG  2  12   1  21   1
M  END
$$$$
