
     RDKit          3D

135137  0  0  0  0  0  0  0  0999 V2000
  -21.2631   -1.4767    4.6344 C   0  0  0  0  0  0  0  0  0  0  0  0
  -20.9974   -0.3101    4.9050 O   0  0  0  0  0  0  0  0  0  0  0  0
  -21.4655   -1.9602    3.2244 C   0  0  0  0  0  0  0  0  0  0  0  0
  -21.4176   -2.4713    5.5849 N   0  0  0  0  0  0  0  0  0  0  0  0
  -20.5782   -2.5437    6.7769 C   0  0  2  0  0  0  0  0  0  0  0  0
  -19.2183   -3.2114    6.4187 C   0  0  0  0  0  0  0  0  0  0  0  0
  -18.2294   -3.1485    7.1461 O   0  0  0  0  0  0  0  0  0  0  0  0
  -21.2969   -3.2141    7.9664 C   0  0  0  0  0  0  0  0  0  0  0  0
  -20.3587   -3.8700    8.9956 C   0  0  0  0  0  0  0  0  0  0  0  0
  -19.7595   -2.8086    9.9296 C   0  0  0  0  0  0  0  0  0  0  0  0
  -18.8713   -3.3765   11.0334 C   0  0  0  0  0  0  0  0  0  0  0  0
  -19.3609   -2.9640   12.3700 N   0  0  0  0  0  4  0  0  0  0  0  0
  -19.2212   -3.8972    5.2125 N   0  0  0  0  0  0  0  0  0  0  0  0
  -18.0700   -4.7119    4.7780 C   0  0  2  0  0  0  0  0  0  0  0  0
  -18.4463   -5.3120    3.3937 C   0  0  0  0  0  0  0  0  0  0  0  0
  -19.5757   -5.7750    3.2036 O   0  0  0  0  0  0  0  0  0  0  0  0
  -17.5271   -5.6775    5.8422 C   0  0  0  0  0  0  0  0  0  0  0  0
  -16.4748   -5.0067    6.7499 C   0  0  0  0  0  0  0  0  0  0  0  0
  -15.0580   -4.9705    6.1628 C   0  0  0  0  0  0  0  0  0  0  0  0
  -14.4227   -6.3450    6.0319 C   0  0  0  0  0  0  0  0  0  0  0  0
  -12.9768   -6.2542    6.2990 N   0  0  0  0  0  4  0  0  0  0  0  0
  -17.5478   -5.1443    2.3584 N   0  0  0  0  0  0  0  0  0  0  0  0
  -18.0561   -4.8041    1.0143 C   0  0  2  0  0  0  0  0  0  0  0  0
  -18.1300   -5.9701    0.0028 C   0  0  0  0  0  0  0  0  0  0  0  0
  -19.1969   -6.3061   -0.5107 O   0  0  0  0  0  0  0  0  0  0  0  0
  -17.1864   -3.6843    0.3917 C   0  0  0  0  0  0  0  0  0  0  0  0
  -17.9375   -2.8110   -0.6184 C   0  0  0  0  0  0  0  0  0  0  0  0
  -17.7212   -1.3169   -0.3808 C   0  0  0  0  0  0  0  0  0  0  0  0
  -16.6146   -1.0326    0.5226 N   0  0  0  0  0  0  0  0  0  0  0  0
  -16.7383   -0.4305    1.7272 C   0  0  0  0  0  0  0  0  0  0  0  0
  -15.8333    0.2325    2.3537 N   0  0  0  0  0  0  0  0  0  0  0  0
  -17.9872   -0.5795    2.2137 N   0  0  0  0  0  0  0  0  0  0  0  0
  -16.9605   -6.6638   -0.2512 N   0  0  0  0  0  0  0  0  0  0  0  0
  -16.9695   -8.1464   -0.1623 C   0  0  2  0  0  0  0  0  0  0  0  0
  -16.7354   -8.5535    1.3229 C   0  0  0  0  0  0  0  0  0  0  0  0
  -17.2669   -7.9192    2.2418 O   0  0  0  0  0  0  0  0  0  0  0  0
  -15.9778   -8.7746   -1.1748 C   0  0  0  0  0  0  0  0  0  0  0  0
  -15.8437  -10.2859   -1.1194 C   0  0  0  0  0  0  0  0  0  0  0  0
  -15.0448  -10.9460   -2.0700 C   0  0  0  0  0  0  0  0  0  0  0  0
  -16.4943  -11.0548   -0.1434 C   0  0  0  0  0  0  0  0  0  0  0  0
  -14.8684  -12.3318   -2.0182 C   0  0  0  0  0  0  0  0  0  0  0  0
  -16.3060  -12.4378   -0.0861 C   0  0  0  0  0  0  0  0  0  0  0  0
  -15.4944  -13.0661   -1.0200 C   0  0  0  0  0  0  0  0  0  0  0  0
  -15.3395  -14.4145   -0.9181 O   0  0  0  0  0  0  0  0  0  0  0  0
  -16.0361   -9.7060    1.5583 N   0  0  0  0  0  0  0  0  0  0  0  0
  -15.7127  -10.2362    2.8875 C   0  0  2  0  0  0  0  0  0  0  0  0
  -17.0107  -10.2668    3.7286 C   0  0  0  0  0  0  0  0  0  0  0  0
  -16.9898  -10.2313    4.9570 O   0  0  0  0  0  0  0  0  0  0  0  0
  -14.6714   -9.3432    3.5732 C   0  0  0  0  0  0  0  0  0  0  0  0
  -14.5861   -9.6864    4.9558 O   0  0  0  0  0  0  0  0  0  0  0  0
  -18.1748  -10.3482    2.9962 N   0  0  0  0  0  0  0  0  0  0  0  0
  -19.4997   -9.9960    3.5438 C   0  0  2  0  0  0  0  0  0  0  0  0
  -20.1653  -11.2575    4.1722 C   0  0  0  0  0  0  0  0  0  0  0  0
  -20.5920  -12.1963    3.5031 O   0  0  0  0  0  0  0  0  0  0  0  0
  -20.4673   -9.4500    2.4667 C   0  0  0  0  0  0  0  0  0  0  0  0
  -21.9705   -9.7027    2.6766 C   0  0  0  0  0  0  0  0  0  0  0  0
  -22.9100   -8.5787    2.2400 C   0  0  0  0  0  0  0  0  0  0  0  0
  -24.0955   -9.1357    1.6207 N   0  0  0  0  0  0  0  0  0  0  0  0
  -25.1363   -8.3615    1.2442 C   0  0  0  0  0  0  0  0  0  0  0  0
  -24.7265   -7.1034    0.9794 N   0  0  0  0  0  0  0  0  0  0  0  0
  -26.3426   -8.7660    1.1011 N   0  0  0  0  0  0  0  0  0  0  0  0
  -19.1207   -9.0919    5.5119 C   0  0  0  0  0  0  0  0  0  0  0  0
  -20.0940  -11.2949    5.5556 N   0  0  0  0  0  0  0  0  0  0  0  0
  -19.3163   -7.8879    5.5067 O   0  0  0  0  0  0  0  0  0  0  0  0
  -19.9033  -10.0916    6.4089 C   0  0  1  0  0  0  0  0  0  0  0  0
  -19.0199  -10.3400    7.6704 C   0  0  0  0  0  0  0  0  0  0  0  0
  -18.3499   -7.9329    8.5230 C   0  0  0  0  0  0  0  0  0  0  0  0
  -19.1688   -6.7413    8.9484 C   0  0  0  0  0  0  0  0  0  0  0  0
  -19.0847   -9.2650    8.7851 C   0  0  0  0  0  0  0  0  0  0  0  0
  -21.2830   -9.5234    6.7668 C   0  0  0  0  0  0  0  0  0  0  0  0
  -18.0491   -9.6155    4.8170 N   0  0  0  0  0  0  0  0  0  0  0  0
  -17.0507   -8.7242    4.2278 C   0  0  2  0  0  0  0  0  0  0  0  0
  -17.4481   -7.8042    3.0426 C   0  0  0  0  0  0  0  0  0  0  0  0
  -16.9376   -6.6712    2.9736 O   0  0  0  0  0  0  0  0  0  0  0  0
  -15.7514   -9.5112    3.9424 C   0  0  0  0  0  0  0  0  0  0  0  0
  -15.2661  -10.3620    5.1196 C   0  0  0  0  0  0  0  0  0  0  0  0
  -15.1345  -11.8269    4.7522 C   0  0  0  0  0  0  0  0  0  0  0  0
  -14.5498  -12.2164    3.7389 O   0  0  0  0  0  0  0  0  0  0  0  0
  -15.7342  -12.7004    5.6022 N   0  0  0  0  0  0  0  0  0  0  0  0
  -18.1627   -8.1522    1.9491 N   0  0  0  0  0  0  0  0  0  0  0  0
  -18.9302   -9.3272    1.5241 C   0  0  2  0  0  0  0  0  0  0  0  0
  -20.2735   -9.3692    2.2758 C   0  0  0  0  0  0  0  0  0  0  0  0
  -20.4886  -10.1612    3.1879 O   0  0  0  0  0  0  0  0  0  0  0  0
  -18.0996  -10.6209    1.5743 C   0  0  0  0  0  0  0  0  0  0  0  0
  -16.5969  -10.4713    1.8673 C   0  0  1  0  0  0  0  0  0  0  0  0
  -15.9546   -9.3896    1.0117 C   0  0  0  0  0  0  0  0  0  0  0  0
  -16.4054  -10.1145    3.3472 C   0  0  0  0  0  0  0  0  0  0  0  0
  -21.2115   -8.4254    1.9012 N   0  0  0  0  0  0  0  0  0  0  0  0
  -21.3422   -7.1694    2.7051 C   0  0  2  0  0  0  0  0  0  0  0  0
  -22.3412   -7.4761    3.8494 C   0  0  0  0  0  0  0  0  0  0  0  0
  -23.0163   -8.5132    3.7982 O   0  0  0  0  0  0  0  0  0  0  0  0
  -21.9354   -6.0672    1.8210 C   0  0  0  0  0  0  0  0  0  0  0  0
  -22.6199   -6.5746    0.5399 C   0  0  1  0  0  0  0  0  0  0  0  0
  -22.5546   -5.4962   -0.5433 C   0  0  0  0  0  0  0  0  0  0  0  0
  -21.9627   -7.8573    0.0235 C   0  0  0  0  0  0  0  0  0  0  0  0
  -22.9365   -4.1791    4.9932 C   0  0  0  0  0  0  0  0  0  0  0  0
  -22.5835   -6.6866    4.9217 N   0  0  0  0  0  0  0  0  0  0  0  0
  -22.6395   -3.0216    5.2753 O   0  0  0  0  0  0  0  0  0  0  0  0
  -22.0904   -5.3863    5.4955 C   0  0  1  0  0  0  0  0  0  0  0  0
  -20.6069   -5.0811    5.1673 C   0  0  0  0  0  0  0  0  0  0  0  0
  -18.7809   -5.0382    7.0451 C   0  0  0  0  0  0  0  0  0  0  0  0
  -19.3574   -5.5545    8.3341 C   0  0  0  0  0  0  0  0  0  0  0  0
  -19.7659   -4.2436    6.1553 C   0  0  0  0  0  0  0  0  0  0  0  0
  -22.3817   -5.4703    7.0041 C   0  0  0  0  0  0  0  0  0  0  0  0
  -24.0089   -4.4700    4.1863 N   0  0  0  0  0  0  0  0  0  0  0  0
  -24.3340   -5.8242    3.7007 C   0  0  2  0  0  0  0  0  0  0  0  0
  -25.7919   -6.2163    3.3182 C   0  0  0  0  0  0  0  0  0  0  0  0
  -26.7631   -5.7924    3.9459 O   0  0  0  0  0  0  0  0  0  0  0  0
  -23.6220   -6.9541    4.4872 C   0  0  0  0  0  0  0  0  0  0  0  0
  -23.6278   -6.8510    5.9934 C   0  0  0  0  0  0  0  0  0  0  0  0
  -24.2958   -5.8137    6.6556 C   0  0  0  0  0  0  0  0  0  0  0  0
  -23.0028   -7.8445    6.7637 C   0  0  0  0  0  0  0  0  0  0  0  0
  -24.2926   -5.7419    8.0513 C   0  0  0  0  0  0  0  0  0  0  0  0
  -23.0167   -7.7813    8.1601 C   0  0  0  0  0  0  0  0  0  0  0  0
  -23.6523   -6.7235    8.8039 C   0  0  0  0  0  0  0  0  0  0  0  0
  -25.9365   -7.1453    2.2978 N   0  0  0  0  0  0  0  0  0  0  0  0
  -26.2131   -6.6505    0.9374 C   0  0  2  0  0  0  0  0  0  0  0  0
  -27.0104   -7.7116    0.1398 C   0  0  0  0  0  0  0  0  0  0  0  0
  -26.7254   -8.9045    0.1589 O   0  0  0  0  0  0  0  0  0  0  0  0
  -24.9230   -6.3323    0.1601 C   0  0  0  0  0  0  0  0  0  0  0  0
  -24.4250   -4.8877    0.2656 C   0  0  0  0  0  0  0  0  0  0  0  0
  -23.1486   -4.5962   -0.5259 C   0  0  0  0  0  0  0  0  0  0  0  0
  -23.4585   -4.5550   -1.9536 N   0  0  0  0  0  0  0  0  0  0  0  0
  -23.7754   -3.3742   -2.5370 C   0  0  0  0  0  0  0  0  0  0  0  0
  -24.8745   -3.4849   -3.3097 N   0  0  0  0  0  0  0  0  0  0  0  0
  -23.1363   -2.2777   -2.3730 N   0  0  0  0  0  0  0  0  0  0  0  0
  -28.1654   -7.2218   -0.4496 N   0  0  0  0  0  0  0  0  0  0  0  0
  -29.2889   -8.1261   -0.6901 C   0  0  2  0  0  0  0  0  0  0  0  0
  -30.5607   -7.2879   -0.5690 C   0  0  0  0  0  0  0  0  0  0  0  0
  -31.2271   -7.1600   -1.7330 O   0  0  0  0  0  0  0  0  0  0  0  0
  -29.3130   -9.2398    0.3379 C   0  0  0  0  0  0  0  0  0  0  0  0
  -30.9936   -6.7977    0.4665 O   0  0  0  0  0  0  0  0  0  0  0  0
  -15.4759    0.9403    1.7138 H   0  0  0  0  0  0  0  0  0  0  0  0
  -26.4899   -9.0712    0.1379 H   0  0  0  0  0  0  0  0  0  0  0  0
  -22.9105   -2.1443   -1.3870 H   0  0  0  0  0  0  0  0  0  0  0  0
  1  2  2  0
  1  3  1  0
  4  1  1  0
  5  4  1  0
  6  5  1  0
  5  8  1  1
  6  7  2  0
 13  6  1  0
  8  9  1  0
  9 10  1  0
 10 11  1  0
 11 12  1  0
 14 13  1  0
 15 14  1  0
 14 17  1  1
 15 16  2  0
 22 15  1  0
 17 18  1  0
 18 19  1  0
 19 20  1  0
 20 21  1  0
 23 22  1  0
 24 23  1  0
 23 26  1  6
 24 25  2  0
 33 24  1  0
 26 27  1  0
 27 28  1  0
 28 29  1  0
 29 30  1  0
 30 31  2  0
 30 32  1  0
 34 33  1  0
 35 34  1  0
 34 37  1  6
 35 36  2  0
 45 35  1  0
 37 38  1  0
 38 39  2  0
 38 40  1  0
 39 41  1  0
 40 42  2  0
 41 43  2  0
 42 43  1  0
 43 44  1  0
 46 45  1  0
 47 46  1  0
 46 49  1  1
 47 48  2  0
 51 47  1  0
 49 50  1  0
 52 51  1  0
 53 52  1  0
 52 55  1  6
 53 54  2  0
 63 53  1  0
 55 56  1  0
 56 57  1  0
 57 58  1  0
 58 59  1  0
 59 60  1  0
 59 61  2  0
 62 64  2  0
 62 65  1  0
 71 62  1  0
 65 63  1  0
 65 66  1  0
 65 70  1  1
 66 69  1  0
 67 68  1  0
 69 67  1  0
 68102  2  0
 72 71  1  0
 73 72  1  0
 72 75  1  6
 73 74  2  0
 80 73  1  0
 75 76  1  0
 76 77  1  0
 77 78  2  0
 77 79  1  0
 81 80  1  0
 82 81  1  0
 81 84  1  1
 82 83  2  0
 88 82  1  0
 84 85  1  0
 85 86  1  6
 85 87  1  0
 89 88  1  0
 90 89  1  0
 89 92  1  6
 90 91  2  0
 97 90  1  0
 92 93  1  0
 93 94  1  6
 93 95  1  0
 96 98  2  0
 99 96  1  0
 96105  1  0
 97 99  1  0
 99100  1  0
 99104  1  1
100103  1  0
102101  1  0
101103  1  0
105106  1  0
106107  1  0
106109  1  1
107108  2  0
107116  1  0
109110  1  0
110111  2  0
110112  1  0
111113  1  0
112114  2  0
113115  2  0
114115  1  0
116117  1  0
117118  1  0
117120  1  6
118119  2  0
118127  1  0
120121  1  0
121122  1  0
122123  1  0
123124  1  0
124125  1  0
124126  2  0
127128  1  0
128129  1  0
128131  1  1
129130  1  0
129132  2  0
 31133  1  0
 61134  1  0
126135  1  0
M  CHG  2  12   1  21   1
M  END
$$$$
