
     RDKit          3D

135137  0  0  0  0  0  0  0  0999 V2000
  -31.9768   -2.2671   -1.7208 C   0  0  0  0  0  0  0  0  0  0  0  0
  -32.9749   -2.9084   -2.0328 O   0  0  0  0  0  0  0  0  0  0  0  0
  -31.3592   -1.2321   -2.6209 C   0  0  0  0  0  0  0  0  0  0  0  0
  -31.3028   -2.4270   -0.5222 N   0  0  0  0  0  0  0  0  0  0  0  0
  -29.8479   -2.5238   -0.4561 C   0  0  2  0  0  0  0  0  0  0  0  0
  -29.4296   -4.0159   -0.3066 C   0  0  0  0  0  0  0  0  0  0  0  0
  -29.6653   -4.6796    0.7008 O   0  0  0  0  0  0  0  0  0  0  0  0
  -29.2427   -1.6052    0.6258 C   0  0  0  0  0  0  0  0  0  0  0  0
  -27.7416   -1.8247    0.8871 C   0  0  0  0  0  0  0  0  0  0  0  0
  -26.9187   -1.4409   -0.3513 C   0  0  0  0  0  0  0  0  0  0  0  0
  -25.4179   -1.6749   -0.2021 C   0  0  0  0  0  0  0  0  0  0  0  0
  -24.7122   -1.4066   -1.4774 N   0  0  0  0  0  4  0  0  0  0  0  0
  -28.7793   -4.5385   -1.4153 N   0  0  0  0  0  0  0  0  0  0  0  0
  -28.3136   -5.9381   -1.4560 C   0  0  2  0  0  0  0  0  0  0  0  0
  -27.2701   -6.0937   -0.3136 C   0  0  0  0  0  0  0  0  0  0  0  0
  -27.3174   -5.3553    0.6756 O   0  0  0  0  0  0  0  0  0  0  0  0
  -27.9141   -6.4428   -2.8507 C   0  0  0  0  0  0  0  0  0  0  0  0
  -29.1212   -6.5109   -3.8097 C   0  0  0  0  0  0  0  0  0  0  0  0
  -30.3099   -7.3233   -3.2802 C   0  0  0  0  0  0  0  0  0  0  0  0
  -30.2421   -8.7983   -3.6401 C   0  0  0  0  0  0  0  0  0  0  0  0
  -31.4607   -9.1910   -4.3687 N   0  0  0  0  0  4  0  0  0  0  0  0
  -26.4228   -7.1830   -0.3655 N   0  0  0  0  0  0  0  0  0  0  0  0
  -25.4237   -7.3675    0.7063 C   0  0  2  0  0  0  0  0  0  0  0  0
  -24.4191   -8.5240    0.5042 C   0  0  0  0  0  0  0  0  0  0  0  0
  -24.6539   -9.4480   -0.2743 O   0  0  0  0  0  0  0  0  0  0  0  0
  -26.1411   -7.5872    2.0609 C   0  0  0  0  0  0  0  0  0  0  0  0
  -25.4893   -6.8429    3.2307 C   0  0  0  0  0  0  0  0  0  0  0  0
  -24.6133   -5.6775    2.7724 C   0  0  0  0  0  0  0  0  0  0  0  0
  -24.7162   -4.5074    3.6336 N   0  0  0  0  0  0  0  0  0  0  0  0
  -23.6664   -3.8827    4.2139 C   0  0  0  0  0  0  0  0  0  0  0  0
  -23.6209   -3.3946    5.4016 N   0  0  0  0  0  0  0  0  0  0  0  0
  -22.6050   -3.8525    3.3825 N   0  0  0  0  0  0  0  0  0  0  0  0
  -23.2758   -8.5137    1.2829 N   0  0  0  0  0  0  0  0  0  0  0  0
  -22.2619   -9.5813    1.0867 C   0  0  2  0  0  0  0  0  0  0  0  0
  -20.8867   -9.0558    1.5955 C   0  0  0  0  0  0  0  0  0  0  0  0
  -20.2224   -8.2657    0.9144 O   0  0  0  0  0  0  0  0  0  0  0  0
  -22.2635  -10.0937   -0.3763 C   0  0  0  0  0  0  0  0  0  0  0  0
  -23.4019  -11.0261   -0.7499 C   0  0  0  0  0  0  0  0  0  0  0  0
  -24.0921  -11.7172    0.2619 C   0  0  0  0  0  0  0  0  0  0  0  0
  -23.7945  -11.2240   -2.0818 C   0  0  0  0  0  0  0  0  0  0  0  0
  -25.1718  -12.5492   -0.0481 C   0  0  0  0  0  0  0  0  0  0  0  0
  -24.8818  -12.0458   -2.3876 C   0  0  0  0  0  0  0  0  0  0  0  0
  -25.5637  -12.7000   -1.3714 C   0  0  0  0  0  0  0  0  0  0  0  0
  -26.6189  -13.4854   -1.7213 O   0  0  0  0  0  0  0  0  0  0  0  0
  -20.5132   -9.3952    2.8676 N   0  0  0  0  0  0  0  0  0  0  0  0
  -20.4595   -8.4681    4.0033 C   0  0  2  0  0  0  0  0  0  0  0  0
  -18.9772   -8.1219    4.2796 C   0  0  0  0  0  0  0  0  0  0  0  0
  -18.0583   -8.8318    3.8768 O   0  0  0  0  0  0  0  0  0  0  0  0
  -21.0802   -9.1185    5.2457 C   0  0  0  0  0  0  0  0  0  0  0  0
  -21.0807  -10.5373    5.0907 O   0  0  0  0  0  0  0  0  0  0  0  0
  -18.7768   -6.9741    5.0148 N   0  0  0  0  0  0  0  0  0  0  0  0
  -17.7901   -6.8777    6.1087 C   0  0  2  0  0  0  0  0  0  0  0  0
  -18.4433   -6.2038    7.3530 C   0  0  0  0  0  0  0  0  0  0  0  0
  -18.9313   -5.0758    7.3281 O   0  0  0  0  0  0  0  0  0  0  0  0
  -16.5497   -6.0363    5.7242 C   0  0  0  0  0  0  0  0  0  0  0  0
  -15.6761   -5.5032    6.8731 C   0  0  0  0  0  0  0  0  0  0  0  0
  -14.2216   -5.1888    6.5236 C   0  0  0  0  0  0  0  0  0  0  0  0
  -13.6666   -6.2508    5.7091 N   0  0  0  0  0  0  0  0  0  0  0  0
  -13.6130   -6.1652    4.3622 C   0  0  0  0  0  0  0  0  0  0  0  0
  -12.3888   -6.5062    3.9087 N   0  0  0  0  0  0  0  0  0  0  0  0
  -14.5968   -5.8569    3.6030 N   0  0  0  0  0  0  0  0  0  0  0  0
  -18.0226   -9.1525    7.4068 C   0  0  0  0  0  0  0  0  0  0  0  0
  -18.5618   -7.0474    8.4460 N   0  0  0  0  0  0  0  0  0  0  0  0
  -17.1780   -9.8262    6.8403 O   0  0  0  0  0  0  0  0  0  0  0  0
  -17.7305   -8.2641    8.6485 C   0  0  1  0  0  0  0  0  0  0  0  0
  -18.1298   -9.1063    9.8994 C   0  0  0  0  0  0  0  0  0  0  0  0
  -16.9570  -11.4461    9.5534 C   0  0  0  0  0  0  0  0  0  0  0  0
  -15.5154  -11.8416    9.3614 C   0  0  0  0  0  0  0  0  0  0  0  0
  -17.0981  -10.1549   10.3876 C   0  0  0  0  0  0  0  0  0  0  0  0
  -16.2539   -7.8476    8.6739 C   0  0  0  0  0  0  0  0  0  0  0  0
  -19.3514   -9.2816    7.0558 N   0  0  0  0  0  0  0  0  0  0  0  0
  -19.7688  -10.3437    6.1415 C   0  0  2  0  0  0  0  0  0  0  0  0
  -19.3178  -10.2989    4.6569 C   0  0  0  0  0  0  0  0  0  0  0  0
  -19.0628  -11.3727    4.0815 O   0  0  0  0  0  0  0  0  0  0  0  0
  -21.2892  -10.5847    6.2800 C   0  0  0  0  0  0  0  0  0  0  0  0
  -21.7626  -11.9256    5.7117 C   0  0  0  0  0  0  0  0  0  0  0  0
  -20.6189  -12.7444    5.1464 C   0  0  0  0  0  0  0  0  0  0  0  0
  -19.4625  -12.3231    5.0718 O   0  0  0  0  0  0  0  0  0  0  0  0
  -20.9520  -13.9800    4.6907 N   0  0  0  0  0  0  0  0  0  0  0  0
  -19.3374   -9.2261    3.8346 N   0  0  0  0  0  0  0  0  0  0  0  0
  -19.5835   -7.7886    3.9866 C   0  0  2  0  0  0  0  0  0  0  0  0
  -18.3623   -7.1198    4.6443 C   0  0  0  0  0  0  0  0  0  0  0  0
  -18.3688   -6.7522    5.8149 O   0  0  0  0  0  0  0  0  0  0  0  0
  -20.9404   -7.4915    4.6476 C   0  0  0  0  0  0  0  0  0  0  0  0
  -21.6954   -8.6874    5.2528 C   0  0  1  0  0  0  0  0  0  0  0  0
  -21.7535   -9.8681    4.2951 C   0  0  0  0  0  0  0  0  0  0  0  0
  -20.9909   -9.1272    6.5429 C   0  0  0  0  0  0  0  0  0  0  0  0
  -17.2329   -7.0030    3.8559 N   0  0  0  0  0  0  0  0  0  0  0  0
  -16.1465   -8.0250    3.9835 C   0  0  2  0  0  0  0  0  0  0  0  0
  -15.2104   -7.5390    5.1188 C   0  0  0  0  0  0  0  0  0  0  0  0
  -15.3252   -6.3800    5.5400 O   0  0  0  0  0  0  0  0  0  0  0  0
  -15.3466   -8.0727    2.6774 C   0  0  0  0  0  0  0  0  0  0  0  0
  -16.1542   -8.5274    1.4494 C   0  0  1  0  0  0  0  0  0  0  0  0
  -16.4219   -7.3310    0.5343 C   0  0  0  0  0  0  0  0  0  0  0  0
  -15.4162   -9.6153    0.6646 C   0  0  0  0  0  0  0  0  0  0  0  0
  -12.4809   -9.7313    4.5925 C   0  0  0  0  0  0  0  0  0  0  0  0
  -14.2256   -8.2647    5.6981 N   0  0  0  0  0  0  0  0  0  0  0  0
  -11.3850  -10.1900    4.9025 O   0  0  0  0  0  0  0  0  0  0  0  0
  -13.6538   -9.6536    5.6142 C   0  0  1  0  0  0  0  0  0  0  0  0
  -14.6906  -10.7330    5.2126 C   0  0  0  0  0  0  0  0  0  0  0  0
  -15.4270  -12.6019    6.8941 C   0  0  0  0  0  0  0  0  0  0  0  0
  -14.8819  -12.3048    8.2634 C   0  0  0  0  0  0  0  0  0  0  0  0
  -14.5148  -12.1819    5.7173 C   0  0  0  0  0  0  0  0  0  0  0  0
  -13.0000   -9.9083    6.9837 C   0  0  0  0  0  0  0  0  0  0  0  0
  -12.7441   -9.2980    3.3163 N   0  0  0  0  0  0  0  0  0  0  0  0
  -13.8924   -8.4464    2.9533 C   0  0  2  0  0  0  0  0  0  0  0  0
  -14.6234   -8.6155    1.5885 C   0  0  0  0  0  0  0  0  0  0  0  0
  -14.4064   -7.8616    0.6391 O   0  0  0  0  0  0  0  0  0  0  0  0
  -13.6996   -6.9532    3.3214 C   0  0  0  0  0  0  0  0  0  0  0  0
  -13.3075   -6.0160    2.2048 C   0  0  0  0  0  0  0  0  0  0  0  0
  -14.2483   -5.5336    1.2867 C   0  0  0  0  0  0  0  0  0  0  0  0
  -11.9826   -5.5615    2.1073 C   0  0  0  0  0  0  0  0  0  0  0  0
  -13.8633   -4.6619    0.2645 C   0  0  0  0  0  0  0  0  0  0  0  0
  -11.6032   -4.6748    1.0955 C   0  0  0  0  0  0  0  0  0  0  0  0
  -12.5416   -4.2336    0.1670 C   0  0  0  0  0  0  0  0  0  0  0  0
  -15.6034   -9.5957    1.5277 N   0  0  0  0  0  0  0  0  0  0  0  0
  -16.9343   -9.2214    1.0173 C   0  0  2  0  0  0  0  0  0  0  0  0
  -16.8026   -8.5812   -0.3864 C   0  0  0  0  0  0  0  0  0  0  0  0
  -15.8116   -7.9468   -0.7331 O   0  0  0  0  0  0  0  0  0  0  0  0
  -17.6503   -8.2179    1.9394 C   0  0  0  0  0  0  0  0  0  0  0  0
  -16.7529   -7.1649    2.5967 C   0  0  0  0  0  0  0  0  0  0  0  0
  -17.2550   -5.7264    2.4582 C   0  0  0  0  0  0  0  0  0  0  0  0
  -16.1172   -4.8092    2.4712 N   0  0  0  0  0  0  0  0  0  0  0  0
  -16.3198   -3.4868    2.2582 C   0  0  0  0  0  0  0  0  0  0  0  0
  -17.0699   -2.9389    3.2351 N   0  0  0  0  0  0  0  0  0  0  0  0
  -15.8513   -2.8204    1.2712 N   0  0  0  0  0  0  0  0  0  0  0  0
  -17.8165   -8.9340   -1.2632 N   0  0  0  0  0  0  0  0  0  0  0  0
  -18.6261   -7.8873   -1.8848 C   0  0  2  0  0  0  0  0  0  0  0  0
  -19.5459   -7.3385   -0.7951 C   0  0  0  0  0  0  0  0  0  0  0  0
  -19.6335   -5.9940   -0.7994 O   0  0  0  0  0  0  0  0  0  0  0  0
  -19.4594   -8.4528   -3.0177 C   0  0  0  0  0  0  0  0  0  0  0  0
  -20.1920   -8.0133   -0.0032 O   0  0  0  0  0  0  0  0  0  0  0  0
  -22.7295   -2.9108    5.4985 H   0  0  0  0  0  0  0  0  0  0  0  0
  -14.3195   -5.1050    2.9704 H   0  0  0  0  0  0  0  0  0  0  0  0
  -14.8429   -2.7018    1.3717 H   0  0  0  0  0  0  0  0  0  0  0  0
  1  2  2  0
  1  3  1  0
  4  1  1  0
  5  4  1  0
  6  5  1  0
  5  8  1  1
  6  7  2  0
 13  6  1  0
  8  9  1  0
  9 10  1  0
 10 11  1  0
 11 12  1  0
 14 13  1  0
 15 14  1  0
 14 17  1  6
 15 16  2  0
 22 15  1  0
 17 18  1  0
 18 19  1  0
 19 20  1  0
 20 21  1  0
 23 22  1  0
 24 23  1  0
 23 26  1  1
 24 25  2  0
 33 24  1  0
 26 27  1  0
 27 28  1  0
 28 29  1  0
 29 30  1  0
 30 31  2  0
 30 32  1  0
 34 33  1  0
 35 34  1  0
 34 37  1  6
 35 36  2  0
 45 35  1  0
 37 38  1  0
 38 39  2  0
 38 40  1  0
 39 41  1  0
 40 42  2  0
 41 43  2  0
 42 43  1  0
 43 44  1  0
 46 45  1  0
 47 46  1  0
 46 49  1  1
 47 48  2  0
 51 47  1  0
 49 50  1  0
 52 51  1  0
 53 52  1  0
 52 55  1  6
 53 54  2  0
 63 53  1  0
 55 56  1  0
 56 57  1  0
 57 58  1  0
 58 59  1  0
 59 60  1  0
 59 61  2  0
 62 64  2  0
 62 65  1  0
 71 62  1  0
 65 63  1  0
 65 66  1  0
 65 70  1  1
 66 69  1  0
 67 68  1  0
 69 67  1  0
 68102  2  0
 72 71  1  0
 73 72  1  0
 72 75  1  6
 73 74  2  0
 80 73  1  0
 75 76  1  0
 76 77  1  0
 77 78  2  0
 77 79  1  0
 81 80  1  0
 82 81  1  0
 81 84  1  1
 82 83  2  0
 88 82  1  0
 84 85  1  0
 85 86  1  6
 85 87  1  0
 89 88  1  0
 90 89  1  0
 89 92  1  6
 90 91  2  0
 97 90  1  0
 92 93  1  0
 93 94  1  6
 93 95  1  0
 96 98  2  0
 99 96  1  0
 96105  1  0
 97 99  1  0
 99100  1  0
 99104  1  1
100103  1  0
102101  1  0
101103  1  0
105106  1  0
106107  1  0
106109  1  6
107108  2  0
107116  1  0
109110  1  0
110111  2  0
110112  1  0
111113  1  0
112114  2  0
113115  2  0
114115  1  0
116117  1  0
117118  1  0
117120  1  1
118119  2  0
118127  1  0
120121  1  0
121122  1  0
122123  1  0
123124  1  0
124125  1  0
124126  2  0
127128  1  0
128129  1  0
128131  1  6
129130  1  0
129132  2  0
 31133  1  0
 61134  1  0
126135  1  0
M  CHG  2  12   1  21   1
M  END
$$$$
