
     RDKit          3D

135137  0  0  0  0  0  0  0  0999 V2000
  -18.7498  -17.3948    4.1521 C   0  0  0  0  0  0  0  0  0  0  0  0
  -19.8716  -17.3839    4.6483 O   0  0  0  0  0  0  0  0  0  0  0  0
  -17.4944  -17.2877    4.9740 C   0  0  0  0  0  0  0  0  0  0  0  0
  -18.5106  -17.4941    2.7922 N   0  0  0  0  0  0  0  0  0  0  0  0
  -17.1600  -17.5792    2.2452 C   0  0  2  0  0  0  0  0  0  0  0  0
  -16.2955  -16.4112    2.8034 C   0  0  0  0  0  0  0  0  0  0  0  0
  -15.3070  -16.5892    3.5120 O   0  0  0  0  0  0  0  0  0  0  0  0
  -17.1504  -17.6684    0.7048 C   0  0  0  0  0  0  0  0  0  0  0  0
  -18.5453  -17.6682    0.0537 C   0  0  0  0  0  0  0  0  0  0  0  0
  -18.4630  -18.1755   -1.3934 C   0  0  0  0  0  0  0  0  0  0  0  0
  -17.8531  -19.5675   -1.5345 C   0  0  0  0  0  0  0  0  0  0  0  0
  -18.1789  -20.1555   -2.8553 N   0  0  0  0  0  4  0  0  0  0  0  0
  -16.7280  -15.1496    2.4207 N   0  0  0  0  0  0  0  0  0  0  0  0
  -15.8548  -13.9642    2.5207 C   0  0  2  0  0  0  0  0  0  0  0  0
  -16.1269  -13.1025    1.2553 C   0  0  0  0  0  0  0  0  0  0  0  0
  -17.2868  -12.8482    0.9145 O   0  0  0  0  0  0  0  0  0  0  0  0
  -14.3895  -14.2719    2.8638 C   0  0  0  0  0  0  0  0  0  0  0  0
  -14.0430  -13.8909    4.3185 C   0  0  0  0  0  0  0  0  0  0  0  0
  -15.2008  -13.2636    5.1054 C   0  0  0  0  0  0  0  0  0  0  0  0
  -14.7671  -12.1256    6.0145 C   0  0  0  0  0  0  0  0  0  0  0  0
  -15.8265  -11.8406    6.9977 N   0  0  0  0  0  4  0  0  0  0  0  0
  -15.0438  -12.4973    0.6486 N   0  0  0  0  0  0  0  0  0  0  0  0
  -15.2371  -11.8063   -0.6421 C   0  0  2  0  0  0  0  0  0  0  0  0
  -16.6715  -11.8318   -1.2161 C   0  0  0  0  0  0  0  0  0  0  0  0
  -16.8908  -12.1745   -2.3777 O   0  0  0  0  0  0  0  0  0  0  0  0
  -14.2845  -12.4049   -1.7062 C   0  0  0  0  0  0  0  0  0  0  0  0
  -14.9780  -13.3533   -2.6894 C   0  0  0  0  0  0  0  0  0  0  0  0
  -14.7566  -14.8254   -2.3434 C   0  0  0  0  0  0  0  0  0  0  0  0
  -13.3516  -15.1722   -2.1780 N   0  0  0  0  0  0  0  0  0  0  0  0
  -12.8896  -16.4183   -1.9281 C   0  0  0  0  0  0  0  0  0  0  0  0
  -12.4271  -17.2551   -2.7865 N   0  0  0  0  0  0  0  0  0  0  0  0
  -12.9378  -16.6937   -0.6088 N   0  0  0  0  0  0  0  0  0  0  0  0
  -17.6915  -11.3900   -0.3927 N   0  0  0  0  0  0  0  0  0  0  0  0
  -18.3464  -10.0908   -0.6920 C   0  0  2  0  0  0  0  0  0  0  0  0
  -17.6678   -8.9856    0.1706 C   0  0  0  0  0  0  0  0  0  0  0  0
  -16.5722   -9.1884    0.7072 O   0  0  0  0  0  0  0  0  0  0  0  0
  -19.8852  -10.1892   -0.5330 C   0  0  0  0  0  0  0  0  0  0  0  0
  -20.5108  -11.5085   -0.9493 C   0  0  0  0  0  0  0  0  0  0  0  0
  -19.9681  -12.2212   -2.0334 C   0  0  0  0  0  0  0  0  0  0  0  0
  -21.6214  -12.0476   -0.2837 C   0  0  0  0  0  0  0  0  0  0  0  0
  -20.4961  -13.4588   -2.4124 C   0  0  0  0  0  0  0  0  0  0  0  0
  -22.1389  -13.2905   -0.6564 C   0  0  0  0  0  0  0  0  0  0  0  0
  -21.5732  -13.9880   -1.7143 C   0  0  0  0  0  0  0  0  0  0  0  0
  -22.1110  -15.1965   -2.0348 O   0  0  0  0  0  0  0  0  0  0  0  0
  -18.2624   -7.7533    0.1985 N   0  0  0  0  0  0  0  0  0  0  0  0
  -17.7493   -6.5889    0.9286 C   0  0  2  0  0  0  0  0  0  0  0  0
  -18.6978   -6.3026    2.1168 C   0  0  0  0  0  0  0  0  0  0  0  0
  -19.9087   -6.5003    2.0437 O   0  0  0  0  0  0  0  0  0  0  0  0
  -17.6943   -5.3674    0.0031 C   0  0  0  0  0  0  0  0  0  0  0  0
  -17.1120   -4.2670    0.7008 O   0  0  0  0  0  0  0  0  0  0  0  0
  -18.0820   -5.8030    3.2434 N   0  0  0  0  0  0  0  0  0  0  0  0
  -18.7595   -4.9127    4.2066 C   0  0  2  0  0  0  0  0  0  0  0  0
  -17.9181   -3.6170    4.4121 C   0  0  0  0  0  0  0  0  0  0  0  0
  -16.7735   -3.6226    4.8603 O   0  0  0  0  0  0  0  0  0  0  0  0
  -18.9493   -5.5668    5.5960 C   0  0  0  0  0  0  0  0  0  0  0  0
  -20.3342   -6.1570    5.9139 C   0  0  0  0  0  0  0  0  0  0  0  0
  -20.9371   -7.0726    4.8487 C   0  0  0  0  0  0  0  0  0  0  0  0
  -21.5143   -6.2798    3.7822 N   0  0  0  0  0  0  0  0  0  0  0  0
  -22.5162   -6.7469    3.0060 C   0  0  0  0  0  0  0  0  0  0  0  0
  -22.2353   -6.5632    1.6991 N   0  0  0  0  0  0  0  0  0  0  0  0
  -23.5692   -7.3351    3.4357 N   0  0  0  0  0  0  0  0  0  0  0  0
  -20.2527   -3.9434    3.1031 C   0  0  0  0  0  0  0  0  0  0  0  0
  -18.5174   -2.4763    3.9022 N   0  0  0  0  0  0  0  0  0  0  0  0
  -21.4409   -4.2193    3.1087 O   0  0  0  0  0  0  0  0  0  0  0  0
  -19.7018   -2.4933    3.0026 C   0  0  1  0  0  0  0  0  0  0  0  0
  -19.3622   -2.2519    1.4993 C   0  0  0  0  0  0  0  0  0  0  0  0
  -21.5154   -3.0191    0.1782 C   0  0  0  0  0  0  0  0  0  0  0  0
  -22.9566   -2.5833    0.2437 C   0  0  0  0  0  0  0  0  0  0  0  0
  -20.5474   -1.8826    0.5712 C   0  0  0  0  0  0  0  0  0  0  0  0
  -20.7336   -1.4901    3.5350 C   0  0  0  0  0  0  0  0  0  0  0  0
  -19.3148   -4.9528    3.0198 N   0  0  0  0  0  0  0  0  0  0  0  0
  -19.7381   -6.3278    2.7582 C   0  0  2  0  0  0  0  0  0  0  0  0
  -20.5579   -7.0949    3.8300 C   0  0  0  0  0  0  0  0  0  0  0  0
  -21.4406   -7.8853    3.4487 O   0  0  0  0  0  0  0  0  0  0  0  0
  -18.5385   -7.1546    2.2423 C   0  0  0  0  0  0  0  0  0  0  0  0
  -17.1843   -6.7005    2.7947 C   0  0  0  0  0  0  0  0  0  0  0  0
  -16.3435   -7.8649    3.2797 C   0  0  0  0  0  0  0  0  0  0  0  0
  -16.7697   -9.0198    3.3483 O   0  0  0  0  0  0  0  0  0  0  0  0
  -15.0804   -7.5531    3.6703 N   0  0  0  0  0  0  0  0  0  0  0  0
  -20.3092   -7.1481    5.1577 N   0  0  0  0  0  0  0  0  0  0  0  0
  -19.4005   -6.4677    6.0858 C   0  0  2  0  0  0  0  0  0  0  0  0
  -19.9065   -5.0380    6.3528 C   0  0  0  0  0  0  0  0  0  0  0  0
  -19.3669   -4.0507    5.8634 O   0  0  0  0  0  0  0  0  0  0  0  0
  -17.9279   -6.5823    5.6560 C   0  0  0  0  0  0  0  0  0  0  0  0
  -17.4182   -7.9865    5.2891 C   0  0  1  0  0  0  0  0  0  0  0  0
  -16.0637   -7.9383    4.5981 C   0  0  0  0  0  0  0  0  0  0  0  0
  -17.2958   -8.8277    6.5664 C   0  0  0  0  0  0  0  0  0  0  0  0
  -21.0405   -4.9290    7.1356 N   0  0  0  0  0  0  0  0  0  0  0  0
  -22.3719   -4.7673    6.4706 C   0  0  2  0  0  0  0  0  0  0  0  0
  -22.5745   -3.2476    6.2452 C   0  0  0  0  0  0  0  0  0  0  0  0
  -21.8179   -2.4480    6.8128 O   0  0  0  0  0  0  0  0  0  0  0  0
  -23.4688   -5.2717    7.4144 C   0  0  0  0  0  0  0  0  0  0  0  0
  -22.9779   -5.6423    8.8247 C   0  0  1  0  0  0  0  0  0  0  0  0
  -24.1092   -6.3127    9.6066 C   0  0  0  0  0  0  0  0  0  0  0  0
  -21.7697   -6.5810    8.7690 C   0  0  0  0  0  0  0  0  0  0  0  0
  -26.0132   -3.2436    5.4037 C   0  0  0  0  0  0  0  0  0  0  0  0
  -23.5446   -2.6817    5.4899 N   0  0  0  0  0  0  0  0  0  0  0  0
  -26.9790   -3.8542    4.9541 O   0  0  0  0  0  0  0  0  0  0  0  0
  -24.6812   -3.1187    4.6065 C   0  0  1  0  0  0  0  0  0  0  0  0
  -24.4360   -4.4750    3.8981 C   0  0  0  0  0  0  0  0  0  0  0  0
  -24.1496   -4.6177    1.2981 C   0  0  0  0  0  0  0  0  0  0  0  0
  -24.0394   -3.2355    0.7168 C   0  0  0  0  0  0  0  0  0  0  0  0
  -25.0859   -4.7436    2.5231 C   0  0  0  0  0  0  0  0  0  0  0  0
  -24.9133   -1.9497    3.6331 C   0  0  0  0  0  0  0  0  0  0  0  0
  -26.0419   -2.6709    6.6515 N   0  0  0  0  0  0  0  0  0  0  0  0
  -24.9585   -2.7983    7.6441 C   0  0  2  0  0  0  0  0  0  0  0  0
  -24.5525   -1.6014    8.5542 C   0  0  0  0  0  0  0  0  0  0  0  0
  -23.9287   -0.6349    8.1141 O   0  0  0  0  0  0  0  0  0  0  0  0
  -23.7196   -3.5661    7.1167 C   0  0  0  0  0  0  0  0  0  0  0  0
  -23.9789   -4.7983    6.2841 C   0  0  0  0  0  0  0  0  0  0  0  0
  -25.0752   -5.6338    6.5308 C   0  0  0  0  0  0  0  0  0  0  0  0
  -23.1430   -5.0942    5.1955 C   0  0  0  0  0  0  0  0  0  0  0  0
  -25.2986   -6.7662    5.7429 C   0  0  0  0  0  0  0  0  0  0  0  0
  -23.3789   -6.2169    4.3969 C   0  0  0  0  0  0  0  0  0  0  0  0
  -24.4507   -7.0595    4.6776 C   0  0  0  0  0  0  0  0  0  0  0  0
  -24.8416   -1.7244    9.9055 N   0  0  0  0  0  0  0  0  0  0  0  0
  -24.0999   -2.7280   10.6895 C   0  0  2  0  0  0  0  0  0  0  0  0
  -22.6735   -2.2107   10.9981 C   0  0  0  0  0  0  0  0  0  0  0  0
  -21.8336   -2.0265   10.1232 O   0  0  0  0  0  0  0  0  0  0  0  0
  -23.9754   -4.0708    9.9472 C   0  0  0  0  0  0  0  0  0  0  0  0
  -25.1205   -5.0624   10.1745 C   0  0  0  0  0  0  0  0  0  0  0  0
  -24.9358   -6.4154    9.4847 C   0  0  0  0  0  0  0  0  0  0  0  0
  -23.6378   -6.4479    8.8138 N   0  0  0  0  0  0  0  0  0  0  0  0
  -23.2361   -7.5788    8.1856 C   0  0  0  0  0  0  0  0  0  0  0  0
  -21.8918   -7.6571    8.1222 N   0  0  0  0  0  0  0  0  0  0  0  0
  -24.0174   -8.4796    7.7211 N   0  0  0  0  0  0  0  0  0  0  0  0
  -22.4912   -1.8135   12.3135 N   0  0  0  0  0  0  0  0  0  0  0  0
  -23.6397   -1.7700   13.2172 C   0  0  2  0  0  0  0  0  0  0  0  0
  -23.5414   -3.0048   14.1119 C   0  0  0  0  0  0  0  0  0  0  0  0
  -24.5752   -3.1264   14.9673 O   0  0  0  0  0  0  0  0  0  0  0  0
  -24.9394   -1.8078   12.4380 C   0  0  0  0  0  0  0  0  0  0  0  0
  -22.6554   -3.8490   14.0642 O   0  0  0  0  0  0  0  0  0  0  0  0
  -13.0833  -17.2872   -3.5653 H   0  0  0  0  0  0  0  0  0  0  0  0
  -23.3044   -8.1467    3.9958 H   0  0  0  0  0  0  0  0  0  0  0  0
  -23.8793   -8.5829    6.7155 H   0  0  0  0  0  0  0  0  0  0  0  0
  1  2  2  0
  1  3  1  0
  4  1  1  0
  5  4  1  0
  6  5  1  0
  5  8  1  6
  6  7  2  0
 13  6  1  0
  8  9  1  0
  9 10  1  0
 10 11  1  0
 11 12  1  0
 14 13  1  0
 15 14  1  0
 14 17  1  6
 15 16  2  0
 22 15  1  0
 17 18  1  0
 18 19  1  0
 19 20  1  0
 20 21  1  0
 23 22  1  0
 24 23  1  0
 23 26  1  6
 24 25  2  0
 33 24  1  0
 26 27  1  0
 27 28  1  0
 28 29  1  0
 29 30  1  0
 30 31  2  0
 30 32  1  0
 34 33  1  0
 35 34  1  0
 34 37  1  1
 35 36  2  0
 45 35  1  0
 37 38  1  0
 38 39  2  0
 38 40  1  0
 39 41  1  0
 40 42  2  0
 41 43  2  0
 42 43  1  0
 43 44  1  0
 46 45  1  0
 47 46  1  0
 46 49  1  6
 47 48  2  0
 51 47  1  0
 49 50  1  0
 52 51  1  0
 53 52  1  0
 52 55  1  1
 53 54  2  0
 63 53  1  0
 55 56  1  0
 56 57  1  0
 57 58  1  0
 58 59  1  0
 59 60  1  0
 59 61  2  0
 62 64  2  0
 62 65  1  0
 71 62  1  0
 65 63  1  0
 65 66  1  0
 65 70  1  1
 66 69  1  0
 67 68  1  0
 69 67  1  0
 68102  2  0
 72 71  1  0
 73 72  1  0
 72 75  1  1
 73 74  2  0
 80 73  1  0
 75 76  1  0
 76 77  1  0
 77 78  2  0
 77 79  1  0
 81 80  1  0
 82 81  1  0
 81 84  1  6
 82 83  2  0
 88 82  1  0
 84 85  1  0
 85 86  1  1
 85 87  1  0
 89 88  1  0
 90 89  1  0
 89 92  1  1
 90 91  2  0
 97 90  1  0
 92 93  1  0
 93 94  1  1
 93 95  1  0
 96 98  2  0
 99 96  1  0
 96105  1  0
 97 99  1  0
 99100  1  0
 99104  1  6
100103  1  0
102101  1  0
101103  1  0
105106  1  0
106107  1  0
106109  1  6
107108  2  0
107116  1  0
109110  1  0
110111  2  0
110112  1  0
111113  1  0
112114  2  0
113115  2  0
114115  1  0
116117  1  0
117118  1  0
117120  1  6
118119  2  0
118127  1  0
120121  1  0
121122  1  0
122123  1  0
123124  1  0
124125  1  0
124126  2  0
127128  1  0
128129  1  0
128131  1  6
129130  1  0
129132  2  0
 31133  1  0
 61134  1  0
126135  1  0
M  CHG  2  12   1  21   1
M  END
$$$$
