
     RDKit          3D

 30 31  0  0  0  0  0  0  0  0999 V2000
    9.9332   28.5703    3.7427 O   0  0  0  0  0  0  0  0  0  0  0  0
   11.0742   31.2128    5.4747 O   0  0  0  0  0  0  0  0  0  0  0  0
   10.4942   30.2004    2.2610 O   0  0  0  0  0  0  0  0  0  0  0  0
   10.6612   32.2222    7.8877 O   0  0  0  0  0  0  0  0  0  0  0  0
    9.0314   38.2076    9.7715 O   0  0  0  0  0  0  0  0  0  0  0  0
    8.5025   36.0358   12.8349 C   0  0  0  0  0  0  0  0  0  0  0  0
    9.6730   36.6893   12.2533 C   0  0  0  0  0  0  0  0  0  0  0  0
    9.9013   33.1746    7.1092 C   0  0  2  0  0  0  0  0  0  0  0  0
    8.1819   34.7969   12.4230 C   0  0  0  0  0  0  0  0  0  0  0  0
   10.1767   36.3666   10.9024 C   0  0  1  0  0  0  0  0  0  0  0  0
    9.8715   29.9084    3.3138 C   0  0  0  0  0  0  0  0  0  0  0  0
    9.1293   34.2601   11.3777 C   0  0  1  0  0  0  0  0  0  0  0  0
    9.2423   35.3098   10.2966 C   0  0  2  0  0  0  0  0  0  0  0  0
    9.8258   31.6610    5.1199 C   0  0  2  0  0  0  0  0  0  0  0  0
   10.3354   37.6076   12.9302 C   0  0  0  0  0  0  0  0  0  0  0  0
   10.2752   37.6163   10.0622 C   0  0  2  0  0  0  0  0  0  0  0  0
    9.1428   34.0418    8.0433 C   0  0  0  0  0  0  0  0  0  0  0  0
    9.0733   32.4123    6.1461 C   0  0  0  0  0  0  0  0  0  0  0  0
    9.8196   34.8845    9.0128 C   0  0  0  0  0  0  0  0  0  0  0  0
   11.0524   38.6533   10.8630 C   0  0  0  0  0  0  0  0  0  0  0  0
   10.4727   33.9998   12.0755 C   0  0  0  0  0  0  0  0  0  0  0  0
    9.0928   30.8498    4.1212 C   0  0  0  0  0  0  0  0  0  0  0  0
   11.5177   38.1862   12.1953 C   0  0  1  0  0  0  0  0  0  0  0  0
   11.9118   39.4312   12.9964 C   0  0  0  0  0  0  0  0  0  0  0  0
    8.8880   39.1878    8.8075 C   0  0  0  0  0  0  0  0  0  0  0  0
    7.5557   39.7984    8.4954 C   0  0  2  0  0  0  0  0  0  0  0  0
    9.9313   39.5516    8.1958 O   0  0  0  0  0  0  0  0  0  0  0  0
    6.4840   39.2454    9.4098 C   0  0  0  0  0  0  0  0  0  0  0  0
    7.1706   39.6556    7.0570 C   0  0  0  0  0  0  0  0  0  0  0  0
    6.0521   37.8518    9.0304 C   0  0  0  0  0  0  0  0  0  0  0  0
 11  1  1  0
 14  2  1  1
 11  3  2  0
  8  4  1  1
 16  5  1  1
  5 25  1  0
  7  6  1  0
  9  6  2  0
 10  7  1  1
  7 15  2  0
 17  8  1  0
  8 18  1  0
 12  9  1  0
 13 10  1  0
 10 16  1  0
 22 11  1  0
 13 12  1  0
 12 21  1  1
 13 19  1  6
 18 14  1  0
 14 22  1  0
 15 23  1  0
 16 20  1  0
 17 19  1  0
 20 23  1  0
 23 24  1  1
 25 26  1  0
 25 27  2  0
 26 28  1  0
 26 29  1  6
 28 30  1  0
M  END
$$$$
