
     RDKit          3D

 30 31  0  0  0  0  0  0  0  0999 V2000
   10.7234   30.4982    3.8648 O   0  0  0  0  0  0  0  0  0  0  0  0
    9.8338   30.6481    6.3359 O   0  0  0  0  0  0  0  0  0  0  0  0
    9.5211   31.7251    2.3761 O   0  0  0  0  0  0  0  0  0  0  0  0
    9.0316   31.3043    8.8550 O   0  0  0  0  0  0  0  0  0  0  0  0
    7.9384   37.8602    9.2698 O   0  0  0  0  0  0  0  0  0  0  0  0
    8.2313   36.8989   12.9263 C   0  0  0  0  0  0  0  0  0  0  0  0
    9.1811   37.4080   11.9394 C   0  0  0  0  0  0  0  0  0  0  0  0
    9.9463   32.3751    8.5272 C   0  0  2  0  0  0  0  0  0  0  0  0
    8.0541   35.5702   13.0284 C   0  0  0  0  0  0  0  0  0  0  0  0
    9.5202   36.6700   10.7053 C   0  0  1  0  0  0  0  0  0  0  0  0
    9.8452   31.5591    3.5798 C   0  0  0  0  0  0  0  0  0  0  0  0
    8.9064   34.7863   12.0601 C   0  0  1  0  0  0  0  0  0  0  0  0
    8.6860   35.3813   10.6887 C   0  0  2  0  0  0  0  0  0  0  0  0
    9.8184   31.9929    6.0591 C   0  0  2  0  0  0  0  0  0  0  0  0
    9.7829   38.5677   12.1220 C   0  0  0  0  0  0  0  0  0  0  0  0
    9.2901   37.5359    9.4911 C   0  0  2  0  0  0  0  0  0  0  0  0
    9.9176   33.3674    9.6292 C   0  0  0  0  0  0  0  0  0  0  0  0
    9.5659   32.9023    7.1962 C   0  0  0  0  0  0  0  0  0  0  0  0
    9.1234   34.5793    9.5364 C   0  0  0  0  0  0  0  0  0  0  0  0
   10.0036   38.8615    9.7249 C   0  0  0  0  0  0  0  0  0  0  0  0
   10.3638   34.9254   12.5248 C   0  0  0  0  0  0  0  0  0  0  0  0
    9.3808   32.3815    4.6989 C   0  0  0  0  0  0  0  0  0  0  0  0
   10.7330   38.9531   11.0169 C   0  0  1  0  0  0  0  0  0  0  0  0
   11.0396   40.4349   11.2565 C   0  0  0  0  0  0  0  0  0  0  0  0
    7.4638   38.2354    8.0268 C   0  0  0  0  0  0  0  0  0  0  0  0
    6.3767   39.2550    7.8723 C   0  0  2  0  0  0  0  0  0  0  0  0
    7.9861   37.6814    7.0192 O   0  0  0  0  0  0  0  0  0  0  0  0
    5.0782   38.5970    7.4580 C   0  0  0  0  0  0  0  0  0  0  0  0
    6.7458   40.3652    6.9403 C   0  0  0  0  0  0  0  0  0  0  0  0
    4.8073   37.3149    8.2032 C   0  0  0  0  0  0  0  0  0  0  0  0
 11  1  1  0
 14  2  1  1
 11  3  2  0
  8  4  1  1
 16  5  1  1
  5 25  1  0
  7  6  1  0
  9  6  2  0
 10  7  1  1
  7 15  2  0
 17  8  1  0
  8 18  1  0
 12  9  1  0
 13 10  1  0
 10 16  1  0
 22 11  1  0
 13 12  1  0
 12 21  1  1
 13 19  1  6
 18 14  1  0
 14 22  1  0
 15 23  1  0
 16 20  1  0
 17 19  1  0
 20 23  1  0
 23 24  1  1
 25 26  1  0
 25 27  2  0
 26 28  1  0
 26 29  1  6
 28 30  1  0
M  END
$$$$
