
     RDKit          3D

 30 31  0  0  0  0  0  0  0  0999 V2000
    6.7857   43.7149    8.7668 O   0  0  0  0  0  0  0  0  0  0  0  0
    5.5618   40.3557    5.9612 O   0  0  0  0  0  0  0  0  0  0  0  0
    6.0984   43.9380    6.6116 O   0  0  0  0  0  0  0  0  0  0  0  0
    6.3264   37.5545    7.1067 O   0  0  0  0  0  0  0  0  0  0  0  0
    9.2972   33.2228    7.7567 O   0  0  0  0  0  0  0  0  0  0  0  0
   11.6927   34.6549   10.3240 C   0  0  0  0  0  0  0  0  0  0  0  0
   10.3483   34.0881   10.4067 C   0  0  0  0  0  0  0  0  0  0  0  0
    7.2874   38.6011    7.3744 C   0  0  2  0  0  0  0  0  0  0  0  0
   11.8263   35.9715   10.0875 C   0  0  0  0  0  0  0  0  0  0  0  0
    9.1880   34.6850    9.7137 C   0  0  1  0  0  0  0  0  0  0  0  0
    6.0810   43.2297    7.6505 C   0  0  0  0  0  0  0  0  0  0  0  0
   10.5022   36.6807    9.9392 C   0  0  1  0  0  0  0  0  0  0  0  0
    9.6909   35.9043    8.9280 C   0  0  2  0  0  0  0  0  0  0  0  0
    6.0324   40.7561    7.1874 C   0  0  2  0  0  0  0  0  0  0  0  0
   10.1196   33.0024   11.1202 C   0  0  0  0  0  0  0  0  0  0  0  0
    8.5098   33.6596    8.8386 C   0  0  2  0  0  0  0  0  0  0  0  0
    8.4217   38.0121    8.1271 C   0  0  0  0  0  0  0  0  0  0  0  0
    6.5765   39.7006    8.0671 C   0  0  0  0  0  0  0  0  0  0  0  0
    8.5190   36.5811    8.3529 C   0  0  0  0  0  0  0  0  0  0  0  0
    8.2489   32.4234    9.6898 C   0  0  0  0  0  0  0  0  0  0  0  0
    9.8395   36.6963   11.3248 C   0  0  0  0  0  0  0  0  0  0  0  0
    5.3869   41.9473    7.7849 C   0  0  0  0  0  0  0  0  0  0  0  0
    8.6838   32.5432   11.1062 C   0  0  1  0  0  0  0  0  0  0  0  0
    8.7151   31.1265   11.6888 C   0  0  0  0  0  0  0  0  0  0  0  0
    8.7634   32.5218    6.6916 C   0  0  0  0  0  0  0  0  0  0  0  0
    8.7953   33.0639    5.2951 C   0  0  2  0  0  0  0  0  0  0  0  0
    8.2442   31.3983    6.9432 O   0  0  0  0  0  0  0  0  0  0  0  0
    8.0271   34.3650    5.2063 C   0  0  0  0  0  0  0  0  0  0  0  0
    8.3175   32.0792    4.2755 C   0  0  0  0  0  0  0  0  0  0  0  0
    6.5464   34.1871    5.4266 C   0  0  0  0  0  0  0  0  0  0  0  0
 11  1  1  0
 14  2  1  6
 11  3  2  0
  8  4  1  1
 16  5  1  6
  5 25  1  0
  7  6  1  0
  9  6  2  0
 10  7  1  6
  7 15  2  0
 17  8  1  0
  8 18  1  0
 12  9  1  0
 13 10  1  0
 10 16  1  0
 22 11  1  0
 13 12  1  0
 12 21  1  1
 13 19  1  1
 18 14  1  0
 14 22  1  0
 15 23  1  0
 16 20  1  0
 17 19  1  0
 20 23  1  0
 23 24  1  6
 25 26  1  0
 25 27  2  0
 26 28  1  0
 26 29  1  6
 28 30  1  0
M  END
$$$$
