
     RDKit          3D

 30 31  0  0  0  0  0  0  0  0999 V2000
    5.5306   43.5707   15.7443 O   0  0  0  0  0  0  0  0  0  0  0  0
    8.7087   42.5397   15.1218 O   0  0  0  0  0  0  0  0  0  0  0  0
    4.5494   41.5218   15.6639 O   0  0  0  0  0  0  0  0  0  0  0  0
    9.5086   40.8919   12.5223 O   0  0  0  0  0  0  0  0  0  0  0  0
    7.8967   35.2662   11.5650 O   0  0  0  0  0  0  0  0  0  0  0  0
   10.9032   33.8822   13.4158 C   0  0  0  0  0  0  0  0  0  0  0  0
    9.5757   34.3233   13.8383 C   0  0  0  0  0  0  0  0  0  0  0  0
    9.7666   40.2815   13.8074 C   0  0  2  0  0  0  0  0  0  0  0  0
   11.8943   34.7878   13.3468 C   0  0  0  0  0  0  0  0  0  0  0  0
    9.0984   35.7085   13.6483 C   0  0  1  0  0  0  0  0  0  0  0  0
    5.4872   42.2529   15.2547 C   0  0  0  0  0  0  0  0  0  0  0  0
   11.4507   36.1773   13.7355 C   0  0  1  0  0  0  0  0  0  0  0  0
   10.2093   36.4903   12.9329 C   0  0  2  0  0  0  0  0  0  0  0  0
    7.8562   41.4920   14.8747 C   0  0  2  0  0  0  0  0  0  0  0  0
    8.7413   33.4822   14.4183 C   0  0  0  0  0  0  0  0  0  0  0  0
    7.7916   35.7188   12.8937 C   0  0  2  0  0  0  0  0  0  0  0  0
   10.4486   38.9842   13.5796 C   0  0  0  0  0  0  0  0  0  0  0  0
    8.4783   40.1957   14.5335 C   0  0  0  0  0  0  0  0  0  0  0  0
    9.7952   37.8998   12.8688 C   0  0  0  0  0  0  0  0  0  0  0  0
    6.8461   34.7487   13.5907 C   0  0  0  0  0  0  0  0  0  0  0  0
   11.1744   36.1579   15.2464 C   0  0  0  0  0  0  0  0  0  0  0  0
    6.5302   41.8385   14.3141 C   0  0  0  0  0  0  0  0  0  0  0  0
    7.4134   34.0882   14.7954 C   0  0  1  0  0  0  0  0  0  0  0  0
    6.5108   32.8939   15.1210 C   0  0  0  0  0  0  0  0  0  0  0  0
    6.9021   35.4853   10.6303 C   0  0  0  0  0  0  0  0  0  0  0  0
    7.0167   34.9820    9.2237 C   0  0  2  0  0  0  0  0  0  0  0  0
    5.8855   36.1308   11.0111 O   0  0  0  0  0  0  0  0  0  0  0  0
    7.3598   36.1108    8.2756 C   0  0  0  0  0  0  0  0  0  0  0  0
    5.8005   34.2395    8.7684 C   0  0  0  0  0  0  0  0  0  0  0  0
    8.7165   36.7102    8.5451 C   0  0  0  0  0  0  0  0  0  0  0  0
 11  1  1  0
 14  2  1  6
 11  3  2  0
  8  4  1  6
 16  5  1  6
  5 25  1  0
  7  6  1  0
  9  6  2  0
 10  7  1  6
  7 15  2  0
 17  8  1  0
  8 18  1  0
 12  9  1  0
 13 10  1  0
 10 16  1  0
 22 11  1  0
 13 12  1  0
 12 21  1  1
 13 19  1  1
 18 14  1  0
 14 22  1  0
 15 23  1  0
 16 20  1  0
 17 19  1  0
 20 23  1  0
 23 24  1  6
 25 26  1  0
 25 27  2  0
 26 28  1  0
 26 29  1  6
 28 30  1  0
M  END
$$$$
