
     RDKit          3D

 30 31  0  0  0  0  0  0  0  0999 V2000
   10.4373   30.5093    3.3889 O   0  0  0  0  0  0  0  0  0  0  0  0
   10.9293   31.7152    5.7052 O   0  0  0  0  0  0  0  0  0  0  0  0
    8.6588   29.0939    3.4154 O   0  0  0  0  0  0  0  0  0  0  0  0
   11.0063   33.0470    7.8842 O   0  0  0  0  0  0  0  0  0  0  0  0
    8.4540   37.9893    9.5090 O   0  0  0  0  0  0  0  0  0  0  0  0
    8.2270   36.5909   13.0266 C   0  0  0  0  0  0  0  0  0  0  0  0
    9.2737   37.2935   12.2874 C   0  0  0  0  0  0  0  0  0  0  0  0
    9.9355   33.7881    7.2559 C   0  0  2  0  0  0  0  0  0  0  0  0
    8.1651   35.2506   12.9441 C   0  0  0  0  0  0  0  0  0  0  0  0
    9.8832   36.7481   11.0571 C   0  0  1  0  0  0  0  0  0  0  0  0
    9.2403   30.0588    3.9741 C   0  0  0  0  0  0  0  0  0  0  0  0
    9.2385   34.6647   12.0592 C   0  0  1  0  0  0  0  0  0  0  0  0
    9.1924   35.4126   10.7470 C   0  0  2  0  0  0  0  0  0  0  0  0
    9.5678   31.8896    5.6701 C   0  0  2  0  0  0  0  0  0  0  0  0
    9.7212   38.4624   12.7040 C   0  0  0  0  0  0  0  0  0  0  0  0
    9.7751   37.7430    9.9275 C   0  0  2  0  0  0  0  0  0  0  0  0
    9.3498   34.7064    8.2627 C   0  0  0  0  0  0  0  0  0  0  0  0
    8.9897   32.8084    6.6728 C   0  0  0  0  0  0  0  0  0  0  0  0
    9.8910   34.8010    9.6067 C   0  0  0  0  0  0  0  0  0  0  0  0
   10.3077   39.0778   10.4328 C   0  0  0  0  0  0  0  0  0  0  0  0
   10.5779   34.8534   12.7870 C   0  0  0  0  0  0  0  0  0  0  0  0
    8.7684   30.7440    5.1791 C   0  0  0  0  0  0  0  0  0  0  0  0
   10.7999   39.0578   11.8353 C   0  0  1  0  0  0  0  0  0  0  0  0
   10.9171   40.5155   12.2921 C   0  0  0  0  0  0  0  0  0  0  0  0
    8.1533   38.4171    8.2293 C   0  0  0  0  0  0  0  0  0  0  0  0
    6.7470   38.7167    7.8078 C   0  0  2  0  0  0  0  0  0  0  0  0
    9.1172   38.5467    7.4236 O   0  0  0  0  0  0  0  0  0  0  0  0
    6.0641   37.4691    7.2902 C   0  0  0  0  0  0  0  0  0  0  0  0
    6.6599   39.8351    6.8182 C   0  0  0  0  0  0  0  0  0  0  0  0
    6.8853   36.7363    6.2601 C   0  0  0  0  0  0  0  0  0  0  0  0
 11  1  1  0
 14  2  1  1
 11  3  2  0
  8  4  1  1
 16  5  1  1
  5 25  1  0
  7  6  1  0
  9  6  2  0
 10  7  1  1
  7 15  2  0
 17  8  1  0
  8 18  1  0
 12  9  1  0
 13 10  1  0
 10 16  1  0
 22 11  1  0
 13 12  1  0
 12 21  1  1
 13 19  1  6
 18 14  1  0
 14 22  1  0
 15 23  1  0
 16 20  1  0
 17 19  1  0
 20 23  1  0
 23 24  1  1
 25 26  1  0
 25 27  2  0
 26 28  1  0
 26 29  1  6
 28 30  1  0
M  END
$$$$
