
     RDKit          3D

 30 31  0  0  0  0  0  0  0  0999 V2000
   10.5839   34.5145   17.2900 O   0  0  0  0  0  0  0  0  0  0  0  0
   11.4950   34.5387   14.8543 O   0  0  0  0  0  0  0  0  0  0  0  0
    8.7974   35.8690   17.6656 O   0  0  0  0  0  0  0  0  0  0  0  0
   11.8322   34.9945   12.0177 O   0  0  0  0  0  0  0  0  0  0  0  0
    8.9316   35.1966    6.8190 O   0  0  0  0  0  0  0  0  0  0  0  0
    6.5866   32.3767    7.7832 C   0  0  0  0  0  0  0  0  0  0  0  0
    6.6064   33.8108    8.0634 C   0  0  0  0  0  0  0  0  0  0  0  0
   10.9897   33.8412   12.2429 C   0  0  2  0  0  0  0  0  0  0  0  0
    7.2438   31.5465    8.6115 C   0  0  0  0  0  0  0  0  0  0  0  0
    7.7061   34.4628    8.8038 C   0  0  1  0  0  0  0  0  0  0  0  0
    9.4855   35.2519   16.8128 C   0  0  0  0  0  0  0  0  0  0  0  0
    7.9264   32.2674    9.7485 C   0  0  1  0  0  0  0  0  0  0  0  0
    8.7445   33.3838    9.1420 C   0  0  2  0  0  0  0  0  0  0  0  0
   10.1654   34.4744   14.5174 C   0  0  2  0  0  0  0  0  0  0  0  0
    5.6206   34.5881    7.6583 C   0  0  0  0  0  0  0  0  0  0  0  0
    8.2820   35.6026    7.9998 C   0  0  2  0  0  0  0  0  0  0  0  0
   10.6160   33.2717   10.9253 C   0  0  0  0  0  0  0  0  0  0  0  0
    9.8515   34.2713   13.0877 C   0  0  0  0  0  0  0  0  0  0  0  0
    9.7686   34.0003    9.9983 C   0  0  0  0  0  0  0  0  0  0  0  0
    7.1245   36.4877    7.5552 C   0  0  0  0  0  0  0  0  0  0  0  0
    6.8226   32.7962   10.6766 C   0  0  0  0  0  0  0  0  0  0  0  0
    9.2307   35.2429   15.3708 C   0  0  0  0  0  0  0  0  0  0  0  0
    5.7869   36.0409    8.0249 C   0  0  1  0  0  0  0  0  0  0  0  0
    4.7434   36.7838    7.1843 C   0  0  0  0  0  0  0  0  0  0  0  0
    9.5538   36.0954    5.9729 C   0  0  0  0  0  0  0  0  0  0  0  0
    9.4198   35.9995    4.4836 C   0  0  2  0  0  0  0  0  0  0  0  0
   10.2444   37.0074    6.5080 O   0  0  0  0  0  0  0  0  0  0  0  0
   10.6141   35.2913    3.8814 C   0  0  0  0  0  0  0  0  0  0  0  0
    9.1878   37.3257    3.8317 C   0  0  0  0  0  0  0  0  0  0  0  0
   10.9666   34.0174    4.6063 C   0  0  0  0  0  0  0  0  0  0  0  0
 11  1  1  0
 14  2  1  6
 11  3  2  0
  8  4  1  6
 16  5  1  6
  5 25  1  0
  7  6  1  0
  9  6  2  0
 10  7  1  6
  7 15  2  0
 17  8  1  0
  8 18  1  0
 12  9  1  0
 13 10  1  0
 10 16  1  0
 22 11  1  0
 13 12  1  0
 12 21  1  1
 13 19  1  1
 18 14  1  0
 14 22  1  0
 15 23  1  0
 16 20  1  0
 17 19  1  0
 20 23  1  0
 23 24  1  6
 25 26  1  0
 25 27  2  0
 26 28  1  0
 26 29  1  6
 28 30  1  0
M  END
$$$$
