
     RDKit          3D

 30 31  0  0  0  0  0  0  0  0999 V2000
    8.5911   38.3471   17.4332 O   0  0  0  0  0  0  0  0  0  0  0  0
    9.1368   34.7329   15.2383 O   0  0  0  0  0  0  0  0  0  0  0  0
    8.2507   36.0998   17.4055 O   0  0  0  0  0  0  0  0  0  0  0  0
    8.6559   33.4972   12.9596 O   0  0  0  0  0  0  0  0  0  0  0  0
    7.8566   35.5524    7.6545 O   0  0  0  0  0  0  0  0  0  0  0  0
   10.9658   33.7081    6.5089 C   0  0  0  0  0  0  0  0  0  0  0  0
    9.5580   33.3339    6.6250 C   0  0  0  0  0  0  0  0  0  0  0  0
    8.1699   34.7410   12.4052 C   0  0  2  0  0  0  0  0  0  0  0  0
   11.7705   33.5375    7.5721 C   0  0  0  0  0  0  0  0  0  0  0  0
    8.8389   33.3283    7.9157 C   0  0  1  0  0  0  0  0  0  0  0  0
    8.5457   37.1247   16.7391 C   0  0  0  0  0  0  0  0  0  0  0  0
   11.0524   32.9599    8.7676 C   0  0  1  0  0  0  0  0  0  0  0  0
    9.8194   33.8028    8.9976 C   0  0  2  0  0  0  0  0  0  0  0  0
    8.7293   35.8610   14.5700 C   0  0  2  0  0  0  0  0  0  0  0  0
    8.8671   32.9784    5.5590 C   0  0  0  0  0  0  0  0  0  0  0  0
    7.5964   34.1806    7.8325 C   0  0  2  0  0  0  0  0  0  0  0  0
    8.3578   34.7015   10.9344 C   0  0  0  0  0  0  0  0  0  0  0  0
    8.8681   35.8481   13.0988 C   0  0  0  0  0  0  0  0  0  0  0  0
    9.1509   33.6639   10.2999 C   0  0  0  0  0  0  0  0  0  0  0  0
    6.8146   33.7417    6.6009 C   0  0  0  0  0  0  0  0  0  0  0  0
   10.7034   31.5037    8.4258 C   0  0  0  0  0  0  0  0  0  0  0  0
    8.8437   37.1411   15.3055 C   0  0  0  0  0  0  0  0  0  0  0  0
    7.4304   32.6210    5.8429 C   0  0  1  0  0  0  0  0  0  0  0  0
    6.7530   32.5808    4.4694 C   0  0  0  0  0  0  0  0  0  0  0  0
    6.9645   36.5302    8.0530 C   0  0  0  0  0  0  0  0  0  0  0  0
    7.1574   37.9704    7.6874 C   0  0  2  0  0  0  0  0  0  0  0  0
    5.9730   36.1595    8.7421 O   0  0  0  0  0  0  0  0  0  0  0  0
    8.1327   38.6385    8.6326 C   0  0  0  0  0  0  0  0  0  0  0  0
    5.8710   38.7296    7.6068 C   0  0  0  0  0  0  0  0  0  0  0  0
    8.5397   40.0165    8.1767 C   0  0  0  0  0  0  0  0  0  0  0  0
 11  1  1  0
 14  2  1  1
 11  3  2  0
  8  4  1  1
 16  5  1  6
  5 25  1  0
  7  6  1  0
  9  6  2  0
 10  7  1  6
  7 15  2  0
 17  8  1  0
  8 18  1  0
 12  9  1  0
 13 10  1  0
 10 16  1  0
 22 11  1  0
 13 12  1  0
 12 21  1  6
 13 19  1  1
 18 14  1  0
 14 22  1  0
 15 23  1  0
 16 20  1  0
 17 19  1  0
 20 23  1  0
 23 24  1  6
 25 26  1  0
 25 27  2  0
 26 28  1  0
 26 29  1  1
 28 30  1  0
M  END
$$$$
