
     RDKit          3D

 30 31  0  0  0  0  0  0  0  0999 V2000
   10.9713   29.8341    3.8181 O   0  0  0  0  0  0  0  0  0  0  0  0
    9.2213   30.5766    6.0175 O   0  0  0  0  0  0  0  0  0  0  0  0
   10.2673   30.9399    1.9610 O   0  0  0  0  0  0  0  0  0  0  0  0
    7.7463   32.5512    7.4634 O   0  0  0  0  0  0  0  0  0  0  0  0
    7.2006   38.1995    8.4701 O   0  0  0  0  0  0  0  0  0  0  0  0
    8.1181   37.4678   12.0761 C   0  0  0  0  0  0  0  0  0  0  0  0
    8.8803   37.9218   10.9149 C   0  0  0  0  0  0  0  0  0  0  0  0
    9.1549   32.6795    7.7637 C   0  0  2  0  0  0  0  0  0  0  0  0
    7.9836   36.1467   12.2855 C   0  0  0  0  0  0  0  0  0  0  0  0
    9.0209   37.1114    9.6876 C   0  0  1  0  0  0  0  0  0  0  0  0
   10.3209   30.9269    3.2173 C   0  0  0  0  0  0  0  0  0  0  0  0
    8.6753   35.3106   11.2362 C   0  0  1  0  0  0  0  0  0  0  0  0
    8.2181   35.8182    9.8884 C   0  0  2  0  0  0  0  0  0  0  0  0
    9.8285   31.7182    5.5555 C   0  0  2  0  0  0  0  0  0  0  0  0
    9.4838   39.0948   10.9242 C   0  0  0  0  0  0  0  0  0  0  0  0
    8.5757   37.8991    8.4799 C   0  0  2  0  0  0  0  0  0  0  0  0
    9.3244   33.7757    8.7484 C   0  0  0  0  0  0  0  0  0  0  0  0
    9.8744   32.8680    6.4827 C   0  0  0  0  0  0  0  0  0  0  0  0
    8.4704   34.9498    8.7288 C   0  0  0  0  0  0  0  0  0  0  0  0
    9.2951   39.2417    8.5110 C   0  0  0  0  0  0  0  0  0  0  0  0
   10.1873   35.4886   11.4401 C   0  0  0  0  0  0  0  0  0  0  0  0
    9.7615   31.9565    4.0956 C   0  0  0  0  0  0  0  0  0  0  0  0
   10.2287   39.4180    9.6541 C   0  0  1  0  0  0  0  0  0  0  0  0
   10.5453   40.9140    9.7500 C   0  0  0  0  0  0  0  0  0  0  0  0
    6.5258   38.5288    7.3094 C   0  0  0  0  0  0  0  0  0  0  0  0
    5.0366   38.6927    7.2822 C   0  0  2  0  0  0  0  0  0  0  0  0
    7.2184   38.6876    6.2654 O   0  0  0  0  0  0  0  0  0  0  0  0
    4.6385   39.8341    6.3715 C   0  0  0  0  0  0  0  0  0  0  0  0
    4.4417   38.8513    8.6455 C   0  0  0  0  0  0  0  0  0  0  0  0
    4.3199   39.3811    4.9694 C   0  0  0  0  0  0  0  0  0  0  0  0
 11  1  1  0
 14  2  1  1
 11  3  2  0
  8  4  1  6
 16  5  1  1
  5 25  1  0
  7  6  1  0
  9  6  2  0
 10  7  1  1
  7 15  2  0
 17  8  1  0
  8 18  1  0
 12  9  1  0
 13 10  1  0
 10 16  1  0
 22 11  1  0
 13 12  1  0
 12 21  1  6
 13 19  1  6
 18 14  1  0
 14 22  1  0
 15 23  1  0
 16 20  1  0
 17 19  1  0
 20 23  1  0
 23 24  1  1
 25 26  1  0
 25 27  2  0
 26 28  1  0
 26 29  1  1
 28 30  1  0
M  END
$$$$
