
     RDKit          3D

 30 31  0  0  0  0  0  0  0  0999 V2000
   10.6391   28.1503    4.6938 O   0  0  0  0  0  0  0  0  0  0  0  0
    9.5320   29.8658    7.3026 O   0  0  0  0  0  0  0  0  0  0  0  0
    8.3734   28.1957    4.5155 O   0  0  0  0  0  0  0  0  0  0  0  0
    8.1594   32.3180    8.5857 O   0  0  0  0  0  0  0  0  0  0  0  0
    8.5249   38.1586    9.9415 O   0  0  0  0  0  0  0  0  0  0  0  0
    8.6759   38.4115    6.1608 C   0  0  0  0  0  0  0  0  0  0  0  0
    7.6057   38.1069    7.1080 C   0  0  0  0  0  0  0  0  0  0  0  0
    9.5010   32.5163    8.0843 C   0  0  2  0  0  0  0  0  0  0  0  0
    9.4390   37.4047    5.7011 C   0  0  0  0  0  0  0  0  0  0  0  0
    7.6497   36.9386    8.0113 C   0  0  1  0  0  0  0  0  0  0  0  0
    9.4250   28.8603    4.6994 C   0  0  0  0  0  0  0  0  0  0  0  0
    9.0454   36.0617    6.2666 C   0  0  1  0  0  0  0  0  0  0  0  0
    8.9802   36.2118    7.7689 C   0  0  2  0  0  0  0  0  0  0  0  0
    9.7276   30.7810    6.2979 C   0  0  2  0  0  0  0  0  0  0  0  0
    6.5398   38.8800    7.1888 C   0  0  0  0  0  0  0  0  0  0  0  0
    7.4684   37.3718    9.4454 C   0  0  2  0  0  0  0  0  0  0  0  0
    9.9278   33.8953    8.4253 C   0  0  0  0  0  0  0  0  0  0  0  0
    9.4936   32.2001    6.6371 C   0  0  0  0  0  0  0  0  0  0  0  0
    8.9653   34.9738    8.5621 C   0  0  0  0  0  0  0  0  0  0  0  0
    6.2271   38.2525    9.5103 C   0  0  0  0  0  0  0  0  0  0  0  0
    7.6816   35.6976    5.6609 C   0  0  0  0  0  0  0  0  0  0  0  0
    9.4804   30.3074    4.9168 C   0  0  0  0  0  0  0  0  0  0  0  0
    5.5267   38.4329    8.2117 C   0  0  1  0  0  0  0  0  0  0  0  0
    4.5760   39.6233    8.3746 C   0  0  0  0  0  0  0  0  0  0  0  0
    8.7252   38.3560   11.2949 C   0  0  0  0  0  0  0  0  0  0  0  0
    9.9173   39.0995   11.8157 C   0  0  2  0  0  0  0  0  0  0  0  0
    7.8577   37.8821   12.0810 O   0  0  0  0  0  0  0  0  0  0  0  0
   11.0436   38.1442   12.1465 C   0  0  0  0  0  0  0  0  0  0  0  0
    9.5925   39.9816   12.9793 C   0  0  0  0  0  0  0  0  0  0  0  0
   12.0357   37.9961   11.0212 C   0  0  0  0  0  0  0  0  0  0  0  0
 11  1  1  0
 14  2  1  1
 11  3  2  0
  8  4  1  6
 16  5  1  6
  5 25  1  0
  7  6  1  0
  9  6  2  0
 10  7  1  6
  7 15  2  0
 17  8  1  0
  8 18  1  0
 12  9  1  0
 13 10  1  0
 10 16  1  0
 22 11  1  0
 13 12  1  0
 12 21  1  6
 13 19  1  1
 18 14  1  0
 14 22  1  0
 15 23  1  0
 16 20  1  0
 17 19  1  0
 20 23  1  0
 23 24  1  1
 25 26  1  0
 25 27  2  0
 26 28  1  0
 26 29  1  1
 28 30  1  0
M  END
$$$$
