
     RDKit          3D

 30 31  0  0  0  0  0  0  0  0999 V2000
    8.6537   31.8133    3.4463 O   0  0  0  0  0  0  0  0  0  0  0  0
    9.1216   30.6233    7.5021 O   0  0  0  0  0  0  0  0  0  0  0  0
    9.3610   30.1004    4.7627 O   0  0  0  0  0  0  0  0  0  0  0  0
    8.1208   32.6157    9.2861 O   0  0  0  0  0  0  0  0  0  0  0  0
    8.8995   36.5756   12.7024 O   0  0  0  0  0  0  0  0  0  0  0  0
   12.5436   37.6069   12.5110 C   0  0  0  0  0  0  0  0  0  0  0  0
   11.3406   38.0203   11.7918 C   0  0  0  0  0  0  0  0  0  0  0  0
    9.5530   32.5233    9.4614 C   0  0  2  0  0  0  0  0  0  0  0  0
   13.2524   36.5655   12.0415 C   0  0  0  0  0  0  0  0  0  0  0  0
   10.5450   37.0874   10.9675 C   0  0  1  0  0  0  0  0  0  0  0  0
    9.1316   31.3340    4.6792 C   0  0  0  0  0  0  0  0  0  0  0  0
   12.6599   35.9666   10.7891 C   0  0  1  0  0  0  0  0  0  0  0  0
   11.1987   35.7020   11.0691 C   0  0  2  0  0  0  0  0  0  0  0  0
    9.7375   31.7763    7.0819 C   0  0  2  0  0  0  0  0  0  0  0  0
   10.9164   39.2679   11.8533 C   0  0  0  0  0  0  0  0  0  0  0  0
    9.1018   37.0911   11.4084 C   0  0  2  0  0  0  0  0  0  0  0  0
    9.9607   33.5029   10.4979 C   0  0  0  0  0  0  0  0  0  0  0  0
   10.1836   32.7127    8.1344 C   0  0  0  0  0  0  0  0  0  0  0  0
   10.4942   34.8052   10.1408 C   0  0  0  0  0  0  0  0  0  0  0  0
    8.6366   38.5409   11.4602 C   0  0  0  0  0  0  0  0  0  0  0  0
   12.8577   36.9898    9.6608 C   0  0  0  0  0  0  0  0  0  0  0  0
    9.3229   32.3020    5.7611 C   0  0  0  0  0  0  0  0  0  0  0  0
    9.6645   39.5363   11.0576 C   0  0  1  0  0  0  0  0  0  0  0  0
    9.1760   40.9069   11.5374 C   0  0  0  0  0  0  0  0  0  0  0  0
    7.6413   36.2688   13.1858 C   0  0  0  0  0  0  0  0  0  0  0  0
    7.3909   36.0405   14.6454 C   0  0  2  0  0  0  0  0  0  0  0  0
    6.7040   36.1880   12.3431 O   0  0  0  0  0  0  0  0  0  0  0  0
    8.4520   36.7189   15.4848 C   0  0  0  0  0  0  0  0  0  0  0  0
    7.2632   34.5920   14.9963 C   0  0  0  0  0  0  0  0  0  0  0  0
    7.8760   37.4980   16.6396 C   0  0  0  0  0  0  0  0  0  0  0  0
 11  1  1  0
 14  2  1  1
 11  3  2  0
  8  4  1  6
 16  5  1  1
  5 25  1  0
  7  6  1  0
  9  6  2  0
 10  7  1  1
  7 15  2  0
 17  8  1  0
  8 18  1  0
 12  9  1  0
 13 10  1  0
 10 16  1  0
 22 11  1  0
 13 12  1  0
 12 21  1  6
 13 19  1  6
 18 14  1  0
 14 22  1  0
 15 23  1  0
 16 20  1  0
 17 19  1  0
 20 23  1  0
 23 24  1  1
 25 26  1  0
 25 27  2  0
 26 28  1  0
 26 29  1  6
 28 30  1  0
M  END
$$$$
