
     RDKit          3D

 30 31  0  0  0  0  0  0  0  0999 V2000
    8.9492   31.7558    2.5319 O   0  0  0  0  0  0  0  0  0  0  0  0
    9.7742   30.9710    6.2052 O   0  0  0  0  0  0  0  0  0  0  0  0
   10.8593   30.8063    3.3175 O   0  0  0  0  0  0  0  0  0  0  0  0
    9.6870   31.4967    8.5727 O   0  0  0  0  0  0  0  0  0  0  0  0
    7.9719   37.8648    8.9689 O   0  0  0  0  0  0  0  0  0  0  0  0
    8.8067   37.3289   12.6290 C   0  0  0  0  0  0  0  0  0  0  0  0
    9.5634   37.8382   11.4874 C   0  0  0  0  0  0  0  0  0  0  0  0
   10.5479   32.6396    8.3649 C   0  0  2  0  0  0  0  0  0  0  0  0
    8.8121   36.0066   12.8709 C   0  0  0  0  0  0  0  0  0  0  0  0
    9.8476   37.0196   10.2908 C   0  0  1  0  0  0  0  0  0  0  0  0
    9.9989   31.7112    3.4668 C   0  0  0  0  0  0  0  0  0  0  0  0
    9.6385   35.2291   11.8754 C   0  0  1  0  0  0  0  0  0  0  0  0
    9.1868   35.6490   10.4959 C   0  0  2  0  0  0  0  0  0  0  0  0
   10.2224   32.2367    5.9183 C   0  0  2  0  0  0  0  0  0  0  0  0
   10.0306   39.0718   11.4874 C   0  0  0  0  0  0  0  0  0  0  0  0
    9.3703   37.7225    9.0436 C   0  0  2  0  0  0  0  0  0  0  0  0
   10.3693   33.5720    9.5046 C   0  0  0  0  0  0  0  0  0  0  0  0
   10.2322   33.2066    7.0333 C   0  0  0  0  0  0  0  0  0  0  0  0
    9.5854   34.7871    9.3732 C   0  0  0  0  0  0  0  0  0  0  0  0
    9.9326   39.1381    9.0653 C   0  0  0  0  0  0  0  0  0  0  0  0
   11.1106   35.5820   12.1357 C   0  0  0  0  0  0  0  0  0  0  0  0
   10.0074   32.7146    4.5333 C   0  0  0  0  0  0  0  0  0  0  0  0
   10.7896   39.4466   10.2400 C   0  0  1  0  0  0  0  0  0  0  0  0
   10.9319   40.9706   10.3054 C   0  0  0  0  0  0  0  0  0  0  0  0
    7.3252   38.1874    7.7905 C   0  0  0  0  0  0  0  0  0  0  0  0
    6.1679   37.3839    7.2804 C   0  0  2  0  0  0  0  0  0  0  0  0
    7.7508   39.1932    7.1562 O   0  0  0  0  0  0  0  0  0  0  0  0
    6.5485   36.6328    6.0227 C   0  0  0  0  0  0  0  0  0  0  0  0
    4.9344   38.2041    7.0722 C   0  0  0  0  0  0  0  0  0  0  0  0
    7.5798   35.5615    6.2696 C   0  0  0  0  0  0  0  0  0  0  0  0
 11  1  1  0
 14  2  1  1
 11  3  2  0
  8  4  1  1
 16  5  1  1
  5 25  1  0
  7  6  1  0
  9  6  2  0
 10  7  1  1
  7 15  2  0
 17  8  1  0
  8 18  1  0
 12  9  1  0
 13 10  1  0
 10 16  1  0
 22 11  1  0
 13 12  1  0
 12 21  1  6
 13 19  1  6
 18 14  1  0
 14 22  1  0
 15 23  1  0
 16 20  1  0
 17 19  1  0
 20 23  1  0
 23 24  1  1
 25 26  1  0
 25 27  2  0
 26 28  1  0
 26 29  1  6
 28 30  1  0
M  END
$$$$
