
     RDKit          3D

 30 31  0  0  0  0  0  0  0  0999 V2000
    9.2631   31.0505    2.6919 O   0  0  0  0  0  0  0  0  0  0  0  0
   10.1629   34.2836    5.0287 O   0  0  0  0  0  0  0  0  0  0  0  0
    8.5941   30.1236    4.6567 O   0  0  0  0  0  0  0  0  0  0  0  0
    9.4426   35.2896    7.2777 O   0  0  0  0  0  0  0  0  0  0  0  0
    8.6536   37.0063   12.3141 O   0  0  0  0  0  0  0  0  0  0  0  0
    8.3278   33.5992   13.9469 C   0  0  0  0  0  0  0  0  0  0  0  0
    9.4689   34.4155   13.5384 C   0  0  0  0  0  0  0  0  0  0  0  0
    8.5245   34.1757    7.3610 C   0  0  2  0  0  0  0  0  0  0  0  0
    7.7842   32.7540   13.0539 C   0  0  0  0  0  0  0  0  0  0  0  0
    9.7066   34.8066   12.1337 C   0  0  1  0  0  0  0  0  0  0  0  0
    9.3351   30.9697    4.0942 C   0  0  0  0  0  0  0  0  0  0  0  0
    8.4755   32.7898   11.7125 C   0  0  1  0  0  0  0  0  0  0  0  0
    8.5562   34.2385   11.2906 C   0  0  2  0  0  0  0  0  0  0  0  0
    9.6847   33.0653    5.4440 C   0  0  2  0  0  0  0  0  0  0  0  0
   10.3458   34.8378   14.4288 C   0  0  0  0  0  0  0  0  0  0  0  0
    9.8376   36.3054   12.0170 C   0  0  2  0  0  0  0  0  0  0  0  0
    8.0431   34.0711    8.7600 C   0  0  0  0  0  0  0  0  0  0  0  0
    9.2225   32.9755    6.8447 C   0  0  0  0  0  0  0  0  0  0  0  0
    8.8627   34.5047    9.8773 C   0  0  0  0  0  0  0  0  0  0  0  0
   10.8622   36.7629   13.0474 C   0  0  0  0  0  0  0  0  0  0  0  0
    9.8650   32.1633   11.9027 C   0  0  0  0  0  0  0  0  0  0  0  0
   10.2601   31.8710    4.7843 C   0  0  0  0  0  0  0  0  0  0  0  0
   11.4644   35.6672   13.8512 C   0  0  1  0  0  0  0  0  0  0  0  0
   12.1419   36.3171   15.0619 C   0  0  0  0  0  0  0  0  0  0  0  0
    8.3782   38.2501   11.7774 C   0  0  0  0  0  0  0  0  0  0  0  0
    7.5731   39.2703   12.5231 C   0  0  2  0  0  0  0  0  0  0  0  0
    8.8354   38.4949   10.6258 O   0  0  0  0  0  0  0  0  0  0  0  0
    8.1106   40.6635   12.2766 C   0  0  0  0  0  0  0  0  0  0  0  0
    7.4708   38.9774   13.9865 C   0  0  0  0  0  0  0  0  0  0  0  0
    7.9604   41.1041   10.8428 C   0  0  0  0  0  0  0  0  0  0  0  0
 11  1  1  0
 14  2  1  1
 11  3  2  0
  8  4  1  1
 16  5  1  1
  5 25  1  0
  7  6  1  0
  9  6  2  0
 10  7  1  1
  7 15  2  0
 17  8  1  0
  8 18  1  0
 12  9  1  0
 13 10  1  0
 10 16  1  0
 22 11  1  0
 13 12  1  0
 12 21  1  1
 13 19  1  6
 18 14  1  0
 14 22  1  0
 15 23  1  0
 16 20  1  0
 17 19  1  0
 20 23  1  0
 23 24  1  1
 25 26  1  0
 25 27  2  0
 26 28  1  0
 26 29  1  1
 28 30  1  0
M  END
$$$$
