
     RDKit          3D

 30 31  0  0  0  0  0  0  0  0999 V2000
    8.8948   32.5794    3.5626 O   0  0  0  0  0  0  0  0  0  0  0  0
   11.2976   31.1309    6.7970 O   0  0  0  0  0  0  0  0  0  0  0  0
   10.3419   30.8549    3.8776 O   0  0  0  0  0  0  0  0  0  0  0  0
    9.7049   30.7961    8.7892 O   0  0  0  0  0  0  0  0  0  0  0  0
    8.7591   37.1291   11.7860 O   0  0  0  0  0  0  0  0  0  0  0  0
    6.4567   34.9798   13.8979 C   0  0  0  0  0  0  0  0  0  0  0  0
    7.8806   35.3005   13.9679 C   0  0  0  0  0  0  0  0  0  0  0  0
    9.7894   32.2358    8.8931 C   0  0  2  0  0  0  0  0  0  0  0  0
    6.0660   33.9275   13.1581 C   0  0  0  0  0  0  0  0  0  0  0  0
    8.8303   34.9493   12.8920 C   0  0  1  0  0  0  0  0  0  0  0  0
   10.0192   32.0265    4.2014 C   0  0  0  0  0  0  0  0  0  0  0  0
    7.2181   33.2172   12.4898 C   0  0  1  0  0  0  0  0  0  0  0  0
    8.0332   34.2672   11.7710 C   0  0  2  0  0  0  0  0  0  0  0  0
   10.7462   32.3706    6.5865 C   0  0  2  0  0  0  0  0  0  0  0  0
    8.3777   35.9257   15.0178 C   0  0  0  0  0  0  0  0  0  0  0  0
    9.5749   36.1751   12.4229 C   0  0  2  0  0  0  0  0  0  0  0  0
    8.7470   32.6975    9.8419 C   0  0  0  0  0  0  0  0  0  0  0  0
    9.6861   32.7942    7.5249 C   0  0  0  0  0  0  0  0  0  0  0  0
    8.9936   33.7913   10.7643 C   0  0  0  0  0  0  0  0  0  0  0  0
   10.1458   36.8697   13.6527 C   0  0  0  0  0  0  0  0  0  0  0  0
    8.0212   32.5172   13.5963 C   0  0  0  0  0  0  0  0  0  0  0  0
   10.7206   32.8523    5.1865 C   0  0  0  0  0  0  0  0  0  0  0  0
    9.8609   36.1835   14.9401 C   0  0  1  0  0  0  0  0  0  0  0  0
   10.1476   37.1895   16.0595 C   0  0  0  0  0  0  0  0  0  0  0  0
    9.2360   37.9602   10.7898 C   0  0  0  0  0  0  0  0  0  0  0  0
    8.4505   39.1398   10.3032 C   0  0  2  0  0  0  0  0  0  0  0  0
   10.3681   37.6847   10.3022 O   0  0  0  0  0  0  0  0  0  0  0  0
    7.4405   38.7182    9.2578 C   0  0  0  0  0  0  0  0  0  0  0  0
    9.3169   40.2529    9.8052 C   0  0  0  0  0  0  0  0  0  0  0  0
    8.0714   38.0116    8.0852 C   0  0  0  0  0  0  0  0  0  0  0  0
 11  1  1  0
 14  2  1  6
 11  3  2  0
  8  4  1  6
 16  5  1  1
  5 25  1  0
  7  6  1  0
  9  6  2  0
 10  7  1  1
  7 15  2  0
 17  8  1  0
  8 18  1  0
 12  9  1  0
 13 10  1  0
 10 16  1  0
 22 11  1  0
 13 12  1  0
 12 21  1  1
 13 19  1  6
 18 14  1  0
 14 22  1  0
 15 23  1  0
 16 20  1  0
 17 19  1  0
 20 23  1  0
 23 24  1  1
 25 26  1  0
 25 27  2  0
 26 28  1  0
 26 29  1  6
 28 30  1  0
M  END
$$$$
