
     RDKit          3D

 30 31  0  0  0  0  0  0  0  0999 V2000
   10.4596   30.8158    3.2901 O   0  0  0  0  0  0  0  0  0  0  0  0
    9.3153   30.0033    7.0186 O   0  0  0  0  0  0  0  0  0  0  0  0
    8.6216   29.8556    4.2211 O   0  0  0  0  0  0  0  0  0  0  0  0
    8.6096   31.1512    9.6639 O   0  0  0  0  0  0  0  0  0  0  0  0
    8.3705   36.2002   12.7960 O   0  0  0  0  0  0  0  0  0  0  0  0
   11.1712   37.6764   10.7086 C   0  0  0  0  0  0  0  0  0  0  0  0
    9.7461   37.4568   10.4712 C   0  0  0  0  0  0  0  0  0  0  0  0
    9.8952   31.6453    9.2237 C   0  0  2  0  0  0  0  0  0  0  0  0
   12.0364   36.6924   10.4078 C   0  0  0  0  0  0  0  0  0  0  0  0
    9.1358   36.1114   10.4752 C   0  0  1  0  0  0  0  0  0  0  0  0
    9.4864   30.7647    4.3042 C   0  0  0  0  0  0  0  0  0  0  0  0
   11.3603   35.4645    9.8478 C   0  0  1  0  0  0  0  0  0  0  0  0
   10.2432   35.0980   10.7971 C   0  0  2  0  0  0  0  0  0  0  0  0
    9.7475   31.2794    6.7542 C   0  0  2  0  0  0  0  0  0  0  0  0
    8.9393   38.4741   10.2379 C   0  0  0  0  0  0  0  0  0  0  0  0
    7.9852   36.0555   11.4500 C   0  0  2  0  0  0  0  0  0  0  0  0
   10.4170   32.5737   10.2561 C   0  0  0  0  0  0  0  0  0  0  0  0
    9.7146   32.2382    7.8783 C   0  0  0  0  0  0  0  0  0  0  0  0
    9.6702   33.7505   10.6631 C   0  0  0  0  0  0  0  0  0  0  0  0
    7.0664   37.2332   11.1507 C   0  0  0  0  0  0  0  0  0  0  0  0
   10.8368   35.8332    8.4516 C   0  0  0  0  0  0  0  0  0  0  0  0
    9.5558   31.7672    5.3693 C   0  0  0  0  0  0  0  0  0  0  0  0
    7.5007   38.0843   10.0121 C   0  0  1  0  0  0  0  0  0  0  0  0
    6.7152   39.3963   10.1055 C   0  0  0  0  0  0  0  0  0  0  0  0
    7.9841   35.3034   13.7744 C   0  0  0  0  0  0  0  0  0  0  0  0
    7.7596   35.7315   15.1927 C   0  0  2  0  0  0  0  0  0  0  0  0
    7.8261   34.1005   13.4236 O   0  0  0  0  0  0  0  0  0  0  0  0
    7.5704   34.5296   16.0929 C   0  0  0  0  0  0  0  0  0  0  0  0
    6.6314   36.7030   15.3377 C   0  0  0  0  0  0  0  0  0  0  0  0
    8.6564   33.4973   15.9277 C   0  0  0  0  0  0  0  0  0  0  0  0
 11  1  1  0
 14  2  1  1
 11  3  2  0
  8  4  1  1
 16  5  1  1
  5 25  1  0
  7  6  1  0
  9  6  2  0
 10  7  1  1
  7 15  2  0
 17  8  1  0
  8 18  1  0
 12  9  1  0
 13 10  1  0
 10 16  1  0
 22 11  1  0
 13 12  1  0
 12 21  1  6
 13 19  1  6
 18 14  1  0
 14 22  1  0
 15 23  1  0
 16 20  1  0
 17 19  1  0
 20 23  1  0
 23 24  1  1
 25 26  1  0
 25 27  2  0
 26 28  1  0
 26 29  1  6
 28 30  1  0
M  END
$$$$
