
     RDKit          3D

 14 14  0  0  0  0  0  0  0  0999 V2000
  -22.9176   17.8094  -11.2916 C   0  0  0  0  0  0  0  0  0  0  0  0
  -23.0931   16.6666  -10.5460 C   0  0  0  0  0  0  0  0  0  0  0  0
  -22.9417   15.4306  -11.1132 C   0  0  0  0  0  0  0  0  0  0  0  0
  -22.5871   17.6905  -12.6202 C   0  0  0  0  0  0  0  0  0  0  0  0
  -22.4278   16.4325  -13.2208 C   0  0  0  0  0  0  0  0  0  0  0  0
  -22.6014   15.2873  -12.4784 C   0  0  0  0  0  0  0  0  0  0  0  0
  -22.8202   18.8354  -14.7118 C   0  0  0  0  0  0  0  0  0  0  0  0
  -22.5097   13.9526  -12.9707 C   0  0  0  0  0  0  0  0  0  0  0  0
  -22.2888   13.3935  -14.1017 C   0  0  0  0  0  0  0  0  0  0  0  0
  -22.0175   12.0922  -14.6014 C   0  0  0  0  0  0  0  0  0  0  0  0
  -22.0060   11.6735  -15.7619 O   0  0  0  0  0  0  0  0  0  0  0  0
  -21.7004   11.0592  -13.6544 O   0  0  0  0  0  0  0  0  0  0  0  0
  -23.0618   19.0737  -10.7517 O   0  0  0  0  0  0  0  0  0  0  0  0
  -22.4133   18.8469  -13.3587 O   0  0  0  0  0  0  0  0  0  0  0  0
  1  2  2  0
  1  4  1  0
  1 13  1  0
  2  3  1  0
  3  6  2  0
  4  5  2  0
  4 14  1  0
  5  6  1  0
  6  8  1  0
 14  7  1  0
  8  9  2  0
  9 10  1  0
 10 11  2  0
 10 12  1  0
M  END
$$$$
