
     RDKit          3D

 14 14  0  0  0  0  0  0  0  0999 V2000
  -22.8230   18.1120  -11.1938 C   0  0  0  0  0  0  0  0  0  0  0  0
  -22.7798   16.9746  -10.4210 C   0  0  0  0  0  0  0  0  0  0  0  0
  -22.6415   15.7414  -10.9976 C   0  0  0  0  0  0  0  0  0  0  0  0
  -22.7254   17.9905  -12.5592 C   0  0  0  0  0  0  0  0  0  0  0  0
  -22.5837   16.7353  -13.1699 C   0  0  0  0  0  0  0  0  0  0  0  0
  -22.5390   15.5956  -12.4006 C   0  0  0  0  0  0  0  0  0  0  0  0
  -22.0706   19.1472  -14.5524 C   0  0  0  0  0  0  0  0  0  0  0  0
  -22.4388   14.2612  -12.8922 C   0  0  0  0  0  0  0  0  0  0  0  0
  -22.4990   13.6860  -14.0350 C   0  0  0  0  0  0  0  0  0  0  0  0
  -22.0980   12.4559  -14.6206 C   0  0  0  0  0  0  0  0  0  0  0  0
  -21.9702   12.1459  -15.8079 O   0  0  0  0  0  0  0  0  0  0  0  0
  -21.7783   11.3643  -13.7428 O   0  0  0  0  0  0  0  0  0  0  0  0
  -22.9612   19.3734  -10.6455 O   0  0  0  0  0  0  0  0  0  0  0  0
  -22.7701   19.1414  -13.3248 O   0  0  0  0  0  0  0  0  0  0  0  0
  1  2  2  0
  1  4  1  0
  1 13  1  0
  2  3  1  0
  3  6  2  0
  4  5  2  0
  4 14  1  0
  5  6  1  0
  6  8  1  0
 14  7  1  0
  8  9  2  0
  9 10  1  0
 10 11  2  0
 10 12  1  0
M  END
$$$$
