
     RDKit          3D

 14 14  0  0  0  0  0  0  0  0999 V2000
  -22.7480   18.0549  -11.3370 C   0  0  0  0  0  0  0  0  0  0  0  0
  -22.8567   16.8725  -10.6421 C   0  0  0  0  0  0  0  0  0  0  0  0
  -22.8510   15.6718  -11.2984 C   0  0  0  0  0  0  0  0  0  0  0  0
  -22.6337   18.0118  -12.7058 C   0  0  0  0  0  0  0  0  0  0  0  0
  -22.6264   16.7911  -13.3976 C   0  0  0  0  0  0  0  0  0  0  0  0
  -22.7338   15.6065  -12.7062 C   0  0  0  0  0  0  0  0  0  0  0  0
  -23.6540   20.0562  -13.4265 C   0  0  0  0  0  0  0  0  0  0  0  0
  -22.7799   14.3045  -13.2850 C   0  0  0  0  0  0  0  0  0  0  0  0
  -22.1501   13.6752  -14.2059 C   0  0  0  0  0  0  0  0  0  0  0  0
  -21.9165   12.3298  -14.5955 C   0  0  0  0  0  0  0  0  0  0  0  0
  -21.4053   11.8780  -15.6234 O   0  0  0  0  0  0  0  0  0  0  0  0
  -22.3172   11.2871  -13.6917 O   0  0  0  0  0  0  0  0  0  0  0  0
  -22.7496   19.2854  -10.7072 O   0  0  0  0  0  0  0  0  0  0  0  0
  -22.5250   19.2073  -13.3927 O   0  0  0  0  0  0  0  0  0  0  0  0
  1  2  2  0
  1  4  1  0
  1 13  1  0
  2  3  1  0
  3  6  2  0
  4  5  2  0
  4 14  1  0
  5  6  1  0
  6  8  1  0
 14  7  1  0
  8  9  2  0
  9 10  1  0
 10 11  2  0
 10 12  1  0
M  END
$$$$
