
     RDKit          3D

 14 14  0  0  0  0  0  0  0  0999 V2000
  -22.8000   17.9742  -10.9679 C   0  0  0  0  0  0  0  0  0  0  0  0
  -22.7575   16.8424  -10.1869 C   0  0  0  0  0  0  0  0  0  0  0  0
  -22.6017   15.6066  -10.7533 C   0  0  0  0  0  0  0  0  0  0  0  0
  -22.6837   17.8444  -12.3311 C   0  0  0  0  0  0  0  0  0  0  0  0
  -22.5239   16.5863  -12.9313 C   0  0  0  0  0  0  0  0  0  0  0  0
  -22.4798   15.4522  -12.1538 C   0  0  0  0  0  0  0  0  0  0  0  0
  -21.9748   19.0102  -14.3004 C   0  0  0  0  0  0  0  0  0  0  0  0
  -22.3623   14.1154  -12.6349 C   0  0  0  0  0  0  0  0  0  0  0  0
  -21.9705   13.5485  -13.7146 C   0  0  0  0  0  0  0  0  0  0  0  0
  -22.0707   12.2751  -14.3351 C   0  0  0  0  0  0  0  0  0  0  0  0
  -22.0530   11.9706  -15.5305 O   0  0  0  0  0  0  0  0  0  0  0  0
  -22.2174   11.1229  -13.4893 O   0  0  0  0  0  0  0  0  0  0  0  0
  -22.9556   19.2381  -10.4301 O   0  0  0  0  0  0  0  0  0  0  0  0
  -22.7279   18.9898  -13.1050 O   0  0  0  0  0  0  0  0  0  0  0  0
  1  2  2  0
  1  4  1  0
  1 13  1  0
  2  3  1  0
  3  6  2  0
  4  5  2  0
  4 14  1  0
  5  6  1  0
  6  8  1  0
 14  7  1  0
  8  9  2  0
  9 10  1  0
 10 11  2  0
 10 12  1  0
M  END
$$$$
