
     RDKit          3D

 14 14  0  0  0  0  0  0  0  0999 V2000
  -22.8790   17.8550  -11.2970 C   0  0  0  0  0  0  0  0  0  0  0  0
  -22.9510   16.7419  -10.4917 C   0  0  0  0  0  0  0  0  0  0  0  0
  -22.8748   15.4848  -11.0267 C   0  0  0  0  0  0  0  0  0  0  0  0
  -22.7292   17.6847  -12.6524 C   0  0  0  0  0  0  0  0  0  0  0  0
  -22.6497   16.4043  -13.2207 C   0  0  0  0  0  0  0  0  0  0  0  0
  -22.7202   15.2887  -12.4187 C   0  0  0  0  0  0  0  0  0  0  0  0
  -21.4280   19.5045  -13.5098 C   0  0  0  0  0  0  0  0  0  0  0  0
  -22.6929   13.9359  -12.8677 C   0  0  0  0  0  0  0  0  0  0  0  0
  -22.4394   13.3273  -13.9659 C   0  0  0  0  0  0  0  0  0  0  0  0
  -22.3100   11.9904  -14.4267 C   0  0  0  0  0  0  0  0  0  0  0  0
  -22.3643   11.5366  -15.5727 O   0  0  0  0  0  0  0  0  0  0  0  0
  -22.0784   10.9608  -13.4516 O   0  0  0  0  0  0  0  0  0  0  0  0
  -22.9519   19.1394  -10.7911 O   0  0  0  0  0  0  0  0  0  0  0  0
  -22.6581   18.8117  -13.4510 O   0  0  0  0  0  0  0  0  0  0  0  0
  1  2  2  0
  1  4  1  0
  1 13  1  0
  2  3  1  0
  3  6  2  0
  4  5  2  0
  4 14  1  0
  5  6  1  0
  6  8  1  0
 14  7  1  0
  8  9  2  0
  9 10  1  0
 10 11  2  0
 10 12  1  0
M  END
$$$$
