
     RDKit          3D

 14 14  0  0  0  0  0  0  0  0999 V2000
  -22.8983   18.2037  -11.2125 C   0  0  0  0  0  0  0  0  0  0  0  0
  -22.9377   17.0915  -10.4036 C   0  0  0  0  0  0  0  0  0  0  0  0
  -22.7721   15.8385  -10.9280 C   0  0  0  0  0  0  0  0  0  0  0  0
  -22.6900   18.0366  -12.5605 C   0  0  0  0  0  0  0  0  0  0  0  0
  -22.5186   16.7604  -13.1178 C   0  0  0  0  0  0  0  0  0  0  0  0
  -22.5561   15.6458  -12.3122 C   0  0  0  0  0  0  0  0  0  0  0  0
  -22.2071   19.0113  -14.6952 C   0  0  0  0  0  0  0  0  0  0  0  0
  -22.4372   14.2949  -12.7518 C   0  0  0  0  0  0  0  0  0  0  0  0
  -22.6868   13.6427  -13.8256 C   0  0  0  0  0  0  0  0  0  0  0  0
  -22.2563   12.4470  -14.4592 C   0  0  0  0  0  0  0  0  0  0  0  0
  -22.1221   12.1871  -15.6578 O   0  0  0  0  0  0  0  0  0  0  0  0
  -21.9086   11.3299  -13.6251 O   0  0  0  0  0  0  0  0  0  0  0  0
  -23.0610   19.4840  -10.7173 O   0  0  0  0  0  0  0  0  0  0  0  0
  -22.6525   19.1626  -13.3628 O   0  0  0  0  0  0  0  0  0  0  0  0
  1  2  2  0
  1  4  1  0
  1 13  1  0
  2  3  1  0
  3  6  2  0
  4  5  2  0
  4 14  1  0
  5  6  1  0
  6  8  1  0
 14  7  1  0
  8  9  2  0
  9 10  1  0
 10 11  2  0
 10 12  1  0
M  END
$$$$
