
     RDKit          3D

 14 14  0  0  0  0  0  0  0  0999 V2000
  -23.1102   18.0812  -11.2764 C   0  0  0  0  0  0  0  0  0  0  0  0
  -23.0572   16.9551  -10.4877 C   0  0  0  0  0  0  0  0  0  0  0  0
  -22.8438   15.7222  -11.0415 C   0  0  0  0  0  0  0  0  0  0  0  0
  -22.9453   17.9485  -12.6342 C   0  0  0  0  0  0  0  0  0  0  0  0
  -22.7261   16.6933  -13.2216 C   0  0  0  0  0  0  0  0  0  0  0  0
  -22.6714   15.5650  -12.4363 C   0  0  0  0  0  0  0  0  0  0  0  0
  -21.8552   19.4300  -14.1694 C   0  0  0  0  0  0  0  0  0  0  0  0
  -22.4959   14.2303  -12.9056 C   0  0  0  0  0  0  0  0  0  0  0  0
  -22.8529   13.5528  -13.9323 C   0  0  0  0  0  0  0  0  0  0  0  0
  -22.5086   12.3265  -14.5601 C   0  0  0  0  0  0  0  0  0  0  0  0
  -22.2099   12.0917  -15.7339 O   0  0  0  0  0  0  0  0  0  0  0  0
  -22.4881   11.1383  -13.7525 O   0  0  0  0  0  0  0  0  0  0  0  0
  -23.3233   19.3420  -10.7514 O   0  0  0  0  0  0  0  0  0  0  0  0
  -23.0006   19.0882  -13.4159 O   0  0  0  0  0  0  0  0  0  0  0  0
  1  2  2  0
  1  4  1  0
  1 13  1  0
  2  3  1  0
  3  6  2  0
  4  5  2  0
  4 14  1  0
  5  6  1  0
  6  8  1  0
 14  7  1  0
  8  9  2  0
  9 10  1  0
 10 11  2  0
 10 12  1  0
M  END
$$$$
