
     RDKit          3D

 14 14  0  0  0  0  0  0  0  0999 V2000
  -23.1735   17.5572  -11.0466 C   0  0  0  0  0  0  0  0  0  0  0  0
  -23.3799   16.3251  -10.4705 C   0  0  0  0  0  0  0  0  0  0  0  0
  -23.2579   15.1786  -11.2074 C   0  0  0  0  0  0  0  0  0  0  0  0
  -22.8421   17.6196  -12.3789 C   0  0  0  0  0  0  0  0  0  0  0  0
  -22.7128   16.4558  -13.1519 C   0  0  0  0  0  0  0  0  0  0  0  0
  -22.9172   15.2217  -12.5793 C   0  0  0  0  0  0  0  0  0  0  0  0
  -23.0693   19.0645  -14.2764 C   0  0  0  0  0  0  0  0  0  0  0  0
  -22.8576   13.9683  -13.2559 C   0  0  0  0  0  0  0  0  0  0  0  0
  -22.5556   12.7618  -12.9501 C   0  0  0  0  0  0  0  0  0  0  0  0
  -22.1684   11.5689  -13.6161 C   0  0  0  0  0  0  0  0  0  0  0  0
  -22.6827   10.9941  -14.5791 O   0  0  0  0  0  0  0  0  0  0  0  0
  -21.0023   10.8785  -13.1386 O   0  0  0  0  0  0  0  0  0  0  0  0
  -23.2875   18.7355  -10.3328 O   0  0  0  0  0  0  0  0  0  0  0  0
  -22.6372   18.8642  -12.9461 O   0  0  0  0  0  0  0  0  0  0  0  0
  1  2  2  0
  1  4  1  0
  1 13  1  0
  2  3  1  0
  3  6  2  0
  4  5  2  0
  4 14  1  0
  5  6  1  0
  6  8  1  0
 14  7  1  0
  8  9  2  0
  9 10  1  0
 10 11  2  0
 10 12  1  0
M  END
$$$$
