
     RDKit          3D

 14 14  0  0  0  0  0  0  0  0999 V2000
  -22.8619   17.7855  -11.2737 C   0  0  0  0  0  0  0  0  0  0  0  0
  -22.8591   16.5557  -10.6570 C   0  0  0  0  0  0  0  0  0  0  0  0
  -22.8005   15.4037  -11.3930 C   0  0  0  0  0  0  0  0  0  0  0  0
  -22.8051   17.8398  -12.6457 C   0  0  0  0  0  0  0  0  0  0  0  0
  -22.7451   16.6702  -13.4185 C   0  0  0  0  0  0  0  0  0  0  0  0
  -22.7411   15.4386  -12.8056 C   0  0  0  0  0  0  0  0  0  0  0  0
  -21.8026   19.3547  -14.2078 C   0  0  0  0  0  0  0  0  0  0  0  0
  -22.7237   14.1770  -13.4693 C   0  0  0  0  0  0  0  0  0  0  0  0
  -22.0225   13.1067  -13.4104 C   0  0  0  0  0  0  0  0  0  0  0  0
  -21.9962   11.8264  -14.0241 C   0  0  0  0  0  0  0  0  0  0  0  0
  -21.4151   10.7933  -13.6817 O   0  0  0  0  0  0  0  0  0  0  0  0
  -22.7449   11.6448  -15.2369 O   0  0  0  0  0  0  0  0  0  0  0  0
  -22.9196   18.9692  -10.5622 O   0  0  0  0  0  0  0  0  0  0  0  0
  -22.8084   19.0821  -13.2535 O   0  0  0  0  0  0  0  0  0  0  0  0
  1  2  2  0
  1  4  1  0
  1 13  1  0
  2  3  1  0
  3  6  2  0
  4  5  2  0
  4 14  1  0
  5  6  1  0
  6  8  1  0
 14  7  1  0
  8  9  2  0
  9 10  1  0
 10 11  2  0
 10 12  1  0
M  END
$$$$
