
     RDKit          3D

 14 14  0  0  0  0  0  0  0  0999 V2000
  -23.1071   17.9721  -11.3528 C   0  0  0  0  0  0  0  0  0  0  0  0
  -23.0584   16.7367  -10.7494 C   0  0  0  0  0  0  0  0  0  0  0  0
  -23.0076   15.5931  -11.4990 C   0  0  0  0  0  0  0  0  0  0  0  0
  -23.1043   18.0406  -12.7253 C   0  0  0  0  0  0  0  0  0  0  0  0
  -23.0532   16.8799  -13.5119 C   0  0  0  0  0  0  0  0  0  0  0  0
  -23.0034   15.6427  -12.9123 C   0  0  0  0  0  0  0  0  0  0  0  0
  -21.9495   19.8287  -13.8250 C   0  0  0  0  0  0  0  0  0  0  0  0
  -22.9890   14.3881  -13.5892 C   0  0  0  0  0  0  0  0  0  0  0  0
  -22.5371   13.2125  -13.3558 C   0  0  0  0  0  0  0  0  0  0  0  0
  -22.3765   11.9854  -14.0522 C   0  0  0  0  0  0  0  0  0  0  0  0
  -21.8632   10.9252  -13.6851 O   0  0  0  0  0  0  0  0  0  0  0  0
  -22.8693   11.9055  -15.3995 O   0  0  0  0  0  0  0  0  0  0  0  0
  -23.1585   19.1476  -10.6273 O   0  0  0  0  0  0  0  0  0  0  0  0
  -23.1534   19.2885  -13.3197 O   0  0  0  0  0  0  0  0  0  0  0  0
  1  2  2  0
  1  4  1  0
  1 13  1  0
  2  3  1  0
  3  6  2  0
  4  5  2  0
  4 14  1  0
  5  6  1  0
  6  8  1  0
 14  7  1  0
  8  9  2  0
  9 10  1  0
 10 11  2  0
 10 12  1  0
M  END
$$$$
