
     RDKit          3D

 14 14  0  0  0  0  0  0  0  0999 V2000
  -22.5681   12.0107  -14.3551 C   0  0  0  0  0  0  0  0  0  0  0  0
  -22.7660   12.1318  -12.9990 C   0  0  0  0  0  0  0  0  0  0  0  0
  -22.8936   13.3638  -12.4175 C   0  0  0  0  0  0  0  0  0  0  0  0
  -22.4996   13.1505  -15.1199 C   0  0  0  0  0  0  0  0  0  0  0  0
  -22.6273   14.4230  -14.5428 C   0  0  0  0  0  0  0  0  0  0  0  0
  -22.8264   14.5482  -13.1873 C   0  0  0  0  0  0  0  0  0  0  0  0
  -21.4956   13.9778  -17.1317 C   0  0  0  0  0  0  0  0  0  0  0  0
  -22.9320   15.7757  -12.4700 C   0  0  0  0  0  0  0  0  0  0  0  0
  -23.0500   17.0164  -12.7655 C   0  0  0  0  0  0  0  0  0  0  0  0
  -23.3053   18.2420  -12.0952 C   0  0  0  0  0  0  0  0  0  0  0  0
  -23.3361   19.3951  -12.5328 O   0  0  0  0  0  0  0  0  0  0  0  0
  -23.5767   18.1951  -10.6850 O   0  0  0  0  0  0  0  0  0  0  0  0
  -22.4357   10.7829  -14.9761 O   0  0  0  0  0  0  0  0  0  0  0  0
  -22.3004   13.0153  -16.4818 O   0  0  0  0  0  0  0  0  0  0  0  0
  1  2  2  0
  1  4  1  0
  1 13  1  0
  2  3  1  0
  3  6  2  0
  4  5  2  0
  4 14  1  0
  5  6  1  0
  6  8  1  0
 14  7  1  0
  8  9  2  0
  9 10  1  0
 10 11  2  0
 10 12  1  0
M  END
$$$$
