
     RDKit          3D

 14 14  0  0  0  0  0  0  0  0999 V2000
  -23.0422   17.8970  -11.1432 C   0  0  0  0  0  0  0  0  0  0  0  0
  -23.2781   16.7737  -10.3847 C   0  0  0  0  0  0  0  0  0  0  0  0
  -23.1169   15.5234  -10.9168 C   0  0  0  0  0  0  0  0  0  0  0  0
  -22.6411   17.7439  -12.4487 C   0  0  0  0  0  0  0  0  0  0  0  0
  -22.4707   16.4708  -13.0132 C   0  0  0  0  0  0  0  0  0  0  0  0
  -22.7045   15.3450  -12.2578 C   0  0  0  0  0  0  0  0  0  0  0  0
  -22.8650   18.8965  -14.5370 C   0  0  0  0  0  0  0  0  0  0  0  0
  -22.6088   13.9985  -12.7163 C   0  0  0  0  0  0  0  0  0  0  0  0
  -22.6906   13.3933  -13.8421 C   0  0  0  0  0  0  0  0  0  0  0  0
  -22.4359   12.0980  -14.3657 C   0  0  0  0  0  0  0  0  0  0  0  0
  -22.5399   11.6732  -15.5193 O   0  0  0  0  0  0  0  0  0  0  0  0
  -21.9839   11.0808  -13.4572 O   0  0  0  0  0  0  0  0  0  0  0  0
  -23.1942   19.1749  -10.6386 O   0  0  0  0  0  0  0  0  0  0  0  0
  -22.4071   18.8810  -13.2004 O   0  0  0  0  0  0  0  0  0  0  0  0
  1  2  2  0
  1  4  1  0
  1 13  1  0
  2  3  1  0
  3  6  2  0
  4  5  2  0
  4 14  1  0
  5  6  1  0
  6  8  1  0
 14  7  1  0
  8  9  2  0
  9 10  1  0
 10 11  2  0
 10 12  1  0
M  END
$$$$
