
     RDKit          3D

 14 14  0  0  0  0  0  0  0  0999 V2000
  -22.8196   18.1322  -11.2940 C   0  0  0  0  0  0  0  0  0  0  0  0
  -22.8457   16.9210  -10.6421 C   0  0  0  0  0  0  0  0  0  0  0  0
  -22.7982   15.7472  -11.3439 C   0  0  0  0  0  0  0  0  0  0  0  0
  -22.7454   18.1457  -12.6662 C   0  0  0  0  0  0  0  0  0  0  0  0
  -22.6965   16.9533  -13.4042 C   0  0  0  0  0  0  0  0  0  0  0  0
  -22.7212   15.7401  -12.7560 C   0  0  0  0  0  0  0  0  0  0  0  0
  -21.9732   19.4738  -14.5046 C   0  0  0  0  0  0  0  0  0  0  0  0
  -22.7177   14.4597  -13.3828 C   0  0  0  0  0  0  0  0  0  0  0  0
  -22.1766   13.3198  -13.1626 C   0  0  0  0  0  0  0  0  0  0  0  0
  -21.9710   12.0971  -13.8548 C   0  0  0  0  0  0  0  0  0  0  0  0
  -21.4158   11.0590  -13.4855 O   0  0  0  0  0  0  0  0  0  0  0  0
  -22.4649   11.9928  -15.2000 O   0  0  0  0  0  0  0  0  0  0  0  0
  -22.8654   19.3369  -10.6176 O   0  0  0  0  0  0  0  0  0  0  0  0
  -22.7199   19.3697  -13.3095 O   0  0  0  0  0  0  0  0  0  0  0  0
  1  2  2  0
  1  4  1  0
  1 13  1  0
  2  3  1  0
  3  6  2  0
  4  5  2  0
  4 14  1  0
  5  6  1  0
  6  8  1  0
 14  7  1  0
  8  9  2  0
  9 10  1  0
 10 11  2  0
 10 12  1  0
M  END
$$$$
