
     RDKit          3D

 14 14  0  0  0  0  0  0  0  0999 V2000
  -22.7905   17.9678  -11.2364 C   0  0  0  0  0  0  0  0  0  0  0  0
  -22.8902   16.7979  -10.5193 C   0  0  0  0  0  0  0  0  0  0  0  0
  -22.8109   15.5840  -11.1457 C   0  0  0  0  0  0  0  0  0  0  0  0
  -22.6100   17.8985  -12.5970 C   0  0  0  0  0  0  0  0  0  0  0  0
  -22.5268   16.6638  -13.2583 C   0  0  0  0  0  0  0  0  0  0  0  0
  -22.6249   15.4918  -12.5446 C   0  0  0  0  0  0  0  0  0  0  0  0
  -22.9875   19.0974  -14.6366 C   0  0  0  0  0  0  0  0  0  0  0  0
  -22.5973   14.1764  -13.0937 C   0  0  0  0  0  0  0  0  0  0  0  0
  -22.0879   13.6111  -14.1240 C   0  0  0  0  0  0  0  0  0  0  0  0
  -21.9057   12.2947  -14.6244 C   0  0  0  0  0  0  0  0  0  0  0  0
  -21.4820   11.9124  -15.7182 O   0  0  0  0  0  0  0  0  0  0  0  0
  -22.2517   11.1942  -13.7678 O   0  0  0  0  0  0  0  0  0  0  0  0
  -22.8655   19.2111  -10.6369 O   0  0  0  0  0  0  0  0  0  0  0  0
  -22.5112   19.0817  -13.3064 O   0  0  0  0  0  0  0  0  0  0  0  0
  1  2  2  0
  1  4  1  0
  1 13  1  0
  2  3  1  0
  3  6  2  0
  4  5  2  0
  4 14  1  0
  5  6  1  0
  6  8  1  0
 14  7  1  0
  8  9  2  0
  9 10  1  0
 10 11  2  0
 10 12  1  0
M  END
$$$$
