
     RDKit          3D

 14 14  0  0  0  0  0  0  0  0999 V2000
  -23.3467   17.9132  -11.1806 C   0  0  0  0  0  0  0  0  0  0  0  0
  -23.4750   16.6572  -10.6339 C   0  0  0  0  0  0  0  0  0  0  0  0
  -23.1824   15.5407  -11.3688 C   0  0  0  0  0  0  0  0  0  0  0  0
  -22.9190   18.0300  -12.4814 C   0  0  0  0  0  0  0  0  0  0  0  0
  -22.6144   16.8976  -13.2519 C   0  0  0  0  0  0  0  0  0  0  0  0
  -22.7404   15.6400  -12.7085 C   0  0  0  0  0  0  0  0  0  0  0  0
  -23.3398   19.5296  -14.3017 C   0  0  0  0  0  0  0  0  0  0  0  0
  -22.5038   14.4100  -13.3893 C   0  0  0  0  0  0  0  0  0  0  0  0
  -22.6905   13.1657  -13.1499 C   0  0  0  0  0  0  0  0  0  0  0  0
  -22.5851   11.9298  -13.8413 C   0  0  0  0  0  0  0  0  0  0  0  0
  -22.2244   10.8216  -13.4365 O   0  0  0  0  0  0  0  0  0  0  0  0
  -22.9405   11.9038  -15.2332 O   0  0  0  0  0  0  0  0  0  0  0  0
  -23.6327   19.0624  -10.4678 O   0  0  0  0  0  0  0  0  0  0  0  0
  -22.7940   19.2980  -13.0192 O   0  0  0  0  0  0  0  0  0  0  0  0
  1  2  2  0
  1  4  1  0
  1 13  1  0
  2  3  1  0
  3  6  2  0
  4  5  2  0
  4 14  1  0
  5  6  1  0
  6  8  1  0
 14  7  1  0
  8  9  2  0
  9 10  1  0
 10 11  2  0
 10 12  1  0
M  END
$$$$
