
     RDKit          3D

 14 14  0  0  0  0  0  0  0  0999 V2000
  -23.3069   17.6707  -11.2028 C   0  0  0  0  0  0  0  0  0  0  0  0
  -23.2212   16.3983  -10.6868 C   0  0  0  0  0  0  0  0  0  0  0  0
  -23.0104   15.3232  -11.5066 C   0  0  0  0  0  0  0  0  0  0  0  0
  -23.1776   17.8465  -12.5596 C   0  0  0  0  0  0  0  0  0  0  0  0
  -22.9617   16.7572  -13.4173 C   0  0  0  0  0  0  0  0  0  0  0  0
  -22.8742   15.4834  -12.9051 C   0  0  0  0  0  0  0  0  0  0  0  0
  -22.0805   19.7387  -13.5372 C   0  0  0  0  0  0  0  0  0  0  0  0
  -22.6980   14.2897  -13.6643 C   0  0  0  0  0  0  0  0  0  0  0  0
  -22.7797   13.0302  -13.4460 C   0  0  0  0  0  0  0  0  0  0  0  0
  -22.4732   11.8193  -14.1216 C   0  0  0  0  0  0  0  0  0  0  0  0
  -22.6168   11.5137  -15.3083 O   0  0  0  0  0  0  0  0  0  0  0  0
  -21.9046   10.7452  -13.3552 O   0  0  0  0  0  0  0  0  0  0  0  0
  -23.5185   18.7794  -10.4048 O   0  0  0  0  0  0  0  0  0  0  0  0
  -23.2656   19.1305  -13.0659 O   0  0  0  0  0  0  0  0  0  0  0  0
  1  2  2  0
  1  4  1  0
  1 13  1  0
  2  3  1  0
  3  6  2  0
  4  5  2  0
  4 14  1  0
  5  6  1  0
  6  8  1  0
 14  7  1  0
  8  9  2  0
  9 10  1  0
 10 11  2  0
 10 12  1  0
M  END
$$$$
