
     RDKit          3D

 14 14  0  0  0  0  0  0  0  0999 V2000
  -23.1298   17.7778  -11.2465 C   0  0  0  0  0  0  0  0  0  0  0  0
  -23.3275   16.6741  -10.4494 C   0  0  0  0  0  0  0  0  0  0  0  0
  -23.2132   15.4107  -10.9624 C   0  0  0  0  0  0  0  0  0  0  0  0
  -22.8151   17.5917  -12.5713 C   0  0  0  0  0  0  0  0  0  0  0  0
  -22.6938   16.3046  -13.1167 C   0  0  0  0  0  0  0  0  0  0  0  0
  -22.8896   15.1983  -12.3226 C   0  0  0  0  0  0  0  0  0  0  0  0
  -23.7493   19.4847  -13.7042 C   0  0  0  0  0  0  0  0  0  0  0  0
  -22.8368   13.8412  -12.7558 C   0  0  0  0  0  0  0  0  0  0  0  0
  -22.7712   13.2268  -13.8778 C   0  0  0  0  0  0  0  0  0  0  0  0
  -22.3957   11.9447  -14.3593 C   0  0  0  0  0  0  0  0  0  0  0  0
  -22.3375   11.5160  -15.5148 O   0  0  0  0  0  0  0  0  0  0  0  0
  -22.0135   10.9487  -13.3969 O   0  0  0  0  0  0  0  0  0  0  0  0
  -23.2365   19.0681  -10.7623 O   0  0  0  0  0  0  0  0  0  0  0  0
  -22.6187   18.7093  -13.3619 O   0  0  0  0  0  0  0  0  0  0  0  0
  1  2  2  0
  1  4  1  0
  1 13  1  0
  2  3  1  0
  3  6  2  0
  4  5  2  0
  4 14  1  0
  5  6  1  0
  6  8  1  0
 14  7  1  0
  8  9  2  0
  9 10  1  0
 10 11  2  0
 10 12  1  0
M  END
$$$$
